@<TRIPOS>MOLECULE
*****
 57 62 0 0 0
SMALL
GASTEIGER

@<TRIPOS>ATOM
      1 C          62.7941   88.8946   12.0948 C.3     1  UNL1        0.1021
      2 N          61.8794   88.8445   10.9071 N.3     1  UNL1       -0.2621
      3 C          61.2580   90.1061   10.3851 C.3     1  UNL1        0.0901
      4 C          60.3433   90.0560    9.1974 C.3     1  UNL1        0.0899
      5 N          60.0498   88.7442    8.5316 N.3     1  UNL1       -0.2661
      6 C          60.6711   87.4827    9.0535 C.3     1  UNL1        0.0980
      7 C          61.5859   87.5328   10.2413 C.3     1  UNL1        0.1510
      8 C          62.2072   86.2713   10.7632 C.2     1  UNL1        0.2386
      9 O          62.8828   85.3215    9.8190 O.2     1  UNL1       -0.2736
     10 N          62.1529   85.9594   12.2295 N.am    1  UNL1       -0.2961
     11 H          61.7095   86.5827   12.8492 H       1  UNL1        0.1497
     12 C          62.7742   84.6978   12.7514 C.3     1  UNL1        0.1939
     13 C          64.0089   84.7655   13.6006 C.3     1  UNL1        0.4154
     14 F          65.2436   84.8331   14.4497 F       1  UNL1       -0.1682
     15 F          64.1369   83.2725   13.5335 F       1  UNL1       -0.1682
     16 F          63.8810   86.2584   13.6677 F       1  UNL1       -0.1682
     17 C          59.1351   88.6941    7.3439 C.3     1  UNL1        0.1008
     18 C          59.1804   89.7854    6.3157 C.ar    1  UNL1        0.0129
     19 C          58.0254   90.6409    5.8866 C.ar    1  UNL1        0.0176
     20 C          58.5197   91.5971    4.8419 C.ar    1  UNL1        0.0799
     21 N          59.9803   91.3325    4.6254 N.ar    1  UNL1       -0.3038
     22 C          60.3886   90.2128    5.5362 C.ar    1  UNL1        0.0772
     23 C          60.8754   92.0598    3.6663 C.ar    1  UNL1        0.0649
     24 C          62.3165   91.6640    3.5381 C.ar    1  UNL1        0.0176
     25 C          63.2116   92.3913    2.5790 C.ar    1  UNL1        0.0024
     26 C          62.6656   93.5145    1.7483 C.ar    1  UNL1        0.0115
     27 C          61.2244   93.9105    1.8766 C.ar    1  UNL1        0.0591
     28 CL         60.6784   95.0337    1.0458 Cl      1  UNL1       -0.0822
     29 C          60.3294   93.1831    2.8356 C.ar    1  UNL1        0.0289
     30 C          62.5306   89.8697   13.2038 C.3     1  UNL1        0.1269
     31 O          61.7747   89.4323   14.4233 O.3     1  UNL1       -0.3830
     32 H          61.5313   88.4975   14.3348 H       1  UNL1        0.2104
     33 C          63.0229   91.2823   13.0932 C.3     1  UNL1        0.0401
     34 C          64.4959   91.5615   13.0447 C.3     1  UNL1        0.0833
     35 O          64.7929   92.0098   10.5028 O.2     1  UNL1       -0.2751
     36 C          65.0667   92.3857   11.9289 C.2     1  UNL1        0.2226
     37 N          65.9113   93.5859   12.2392 N.am    1  UNL1       -0.2999
     38 H          66.0910   93.8326   13.1752 H       1  UNL1        0.1498
     39 C          66.4821   94.4101   11.1235 C.3     1  UNL1        0.1278
     40 C          67.3146   93.7582   10.0595 C.ar    1  UNL1        0.0320
     41 C          67.5762   92.2821   10.1112 C.ar    1  UNL1        0.0004
     42 C          68.4086   91.6302    9.0472 C.ar    1  UNL1       -0.0001
     43 C          68.9794   92.4544    7.9315 C.ar    1  UNL1        0.0031
     44 C          68.7178   93.9304    7.8798 C.ar    1  UNL1        0.0366
     45 C          67.8854   94.5823    8.9438 C.ar    1  UNL1        0.1362
     46 O          67.6238   96.0585    8.8920 O.3     1  UNL1       -0.4730
     47 C          66.7913   96.7104    9.9560 C.3     1  UNL1        0.2364
     48 C          66.2205   95.8861   11.0718 C.3     1  UNL1        0.1762
     49 O          65.3881   96.5380   12.1358 O.3     1  UNL1       -0.3788
     50 H          65.3175   97.4882   11.9542 H       1  UNL1        0.2106
     51 C          65.3981   91.0166   14.1120 C.3     1  UNL1        0.0371
     52 C          66.6080   91.7932   14.5398 C.ar    1  UNL1       -0.0025
     53 C          66.5245   92.7268   15.7108 C.ar    1  UNL1       -0.0011
     54 C          67.7344   93.5034   16.1386 C.ar    1  UNL1        0.0204
     55 C          69.0278   93.3463   15.3954 C.ar    1  UNL1        0.0989
     56 N          69.1113   92.4126   14.2244 N.ar    1  UNL1       -0.2426
     57 C          67.9015   91.6361   13.7966 C.ar    1  UNL1        0.0946
@<TRIPOS>BOND
     1    35    36    2
     2    36    37   am
     3    39    37    1
     4    39    40    1
     5    40    41   ar
     6    41    42   ar
     7    42    43   ar
     8    43    44   ar
     9    44    45   ar
    10    45    46    1
    11    46    47    1
    12    47    48    1
    13    48    49    1
    14    36    34    1
    15    34    51    1
    16    51    52    1
    17    52    53   ar
    18    53    54   ar
    19    54    55   ar
    20    55    56   ar
    21    56    57   ar
    22    34    33    1
    23    33    30    1
    24    30    31    1
    25    30     1    1
    26     1     2    1
    27     2     3    1
    28     3     4    1
    29     4     5    1
    30     5    17    1
    31    17    18    1
    32    18    19   ar
    33    19    20   ar
    34    20    21   ar
    35    21    23    1
    36    23    24   ar
    37    24    25   ar
    38    25    26   ar
    39    26    27   ar
    40    27    28    1
    41    27    29   ar
    42    21    22   ar
    43     5     6    1
    44     6     7    1
    45     7     8    1
    46     8     9    2
    47     8    10   am
    48    10    12    1
    49    12    13    1
    50    13    14    1
    51    13    15    1
    52    13    16    1
    53    48    39    1
    54    57    52   ar
    55     7     2    1
    56    45    40   ar
    57    22    18   ar
    58    29    23   ar
    59    37    38    1
    60    49    50    1
    61    31    32    1
    62    10    11    1
@<TRIPOS>MOLECULE
*****
 57 62 0 0 0
SMALL
GASTEIGER

@<TRIPOS>ATOM
      1 C          62.3311   86.7497   10.3589 C.3     1  UNL1        0.1021
      2 N          61.3384   87.4253    9.4599 N.3     1  UNL1       -0.2621
      3 C          60.6048   86.6301    8.4209 C.3     1  UNL1        0.0901
      4 C          59.6122   87.3057    7.5219 C.3     1  UNL1        0.0899
      5 N          59.3531   88.7766    7.6620 N.3     1  UNL1       -0.2661
      6 C          60.0867   89.5717    8.7009 C.3     1  UNL1        0.0980
      7 C          61.0793   88.8961    9.5999 C.3     1  UNL1        0.1510
      8 C          61.8129   89.6912   10.6389 C.2     1  UNL1        0.2386
      9 O          61.3220   89.7070   12.0562 O.2     1  UNL1       -0.2736
     10 N          63.0374   90.4707   10.2606 N.am    1  UNL1       -0.2961
     11 H          63.3597   90.4603    9.3304 H       1  UNL1        0.1497
     12 C          63.7710   91.2658   11.2996 C.3     1  UNL1        0.1939
     13 C          64.7633   92.3105   10.8823 C.3     1  UNL1        0.4154
     14 F          65.7555   93.3552   10.4650 F       1  UNL1       -0.1682
     15 F          65.5847   92.0179   12.1028 F       1  UNL1       -0.1682
     16 F          63.9418   92.6032    9.6619 F       1  UNL1       -0.1682
     17 C          58.3604   89.4522    6.7630 C.3     1  UNL1        0.1008
     18 C          58.8283   90.4478    5.7432 C.ar    1  UNL1        0.0129
     19 C          58.0005   91.5392    5.1320 C.ar    1  UNL1        0.0176
     20 C          58.8666   92.2928    4.1667 C.ar    1  UNL1        0.0799
     21 N          60.2298   91.6670    4.1812 N.ar    1  UNL1       -0.3038
     22 C          60.2061   90.5268    5.1555 C.ar    1  UNL1        0.0772
     23 C          61.4096   92.1047    3.3647 C.ar    1  UNL1        0.0649
     24 C          62.7148   91.3749    3.4816 C.ar    1  UNL1        0.0176
     25 C          63.8946   91.8125    2.6651 C.ar    1  UNL1        0.0024
     26 C          63.7691   92.9800    1.7318 C.ar    1  UNL1        0.0115
     27 C          62.4638   93.7099    1.6149 C.ar    1  UNL1        0.0591
     28 CL         62.3383   94.8774    0.6815 Cl      1  UNL1       -0.0822
     29 C          61.2841   93.2722    2.4314 C.ar    1  UNL1        0.0289
     30 C          62.6184   85.2867   10.1936 C.3     1  UNL1        0.1269
     31 O          63.4730   84.8142    9.0550 O.3     1  UNL1       -0.3830
     32 H          63.7558   85.5760    8.5252 H       1  UNL1        0.2104
     33 C          62.0511   84.2963   11.1668 C.3     1  UNL1        0.0401
     34 C          62.8126   83.9467   12.4109 C.3     1  UNL1        0.0833
     35 O          61.3126   84.5695   14.4387 O.2     1  UNL1       -0.2751
     36 C          62.5911   84.7299   13.6709 C.2     1  UNL1        0.2226
     37 N          63.6483   85.6734   14.1631 N.am    1  UNL1       -0.2999
     38 H          64.4874   85.7786   13.6592 H       1  UNL1        0.1498
     39 C          63.4268   86.4565   15.4231 C.3     1  UNL1        0.1278
     40 C          63.6224   87.9437   15.4259 C.ar    1  UNL1        0.0320
     41 C          64.0393   88.6478   14.1688 C.ar    1  UNL1        0.0004
     42 C          64.2349   90.1350   14.1716 C.ar    1  UNL1       -0.0001
     43 C          64.0135   90.9181   15.4316 C.ar    1  UNL1        0.0031
     44 C          63.5965   90.2141   16.6887 C.ar    1  UNL1        0.0366
     45 C          63.4010   88.7269   16.6859 C.ar    1  UNL1        0.1362
     46 O          62.9840   88.0229   17.9431 O.3     1  UNL1       -0.4730
     47 C          62.7884   86.5357   17.9403 C.3     1  UNL1        0.2364
     48 C          63.0099   85.7525   16.6802 C.3     1  UNL1        0.1762
     49 O          62.8143   84.2653   16.6774 O.3     1  UNL1       -0.3788
     50 H          62.5475   83.9726   17.5628 H       1  UNL1        0.2106
     51 C          63.7957   82.8138   12.3950 C.3     1  UNL1        0.0371
     52 C          63.3919   81.4781   11.8450 C.ar    1  UNL1       -0.0025
     53 C          63.4694   81.2200   10.3694 C.ar    1  UNL1       -0.0011
     54 C          63.0656   79.8841    9.8194 C.ar    1  UNL1        0.0204
     55 C          62.5843   78.8064   10.7450 C.ar    1  UNL1        0.0989
     56 N          62.5068   79.0644   12.2206 N.ar    1  UNL1       -0.2426
     57 C          62.9106   80.4002   12.7706 C.ar    1  UNL1        0.0946
@<TRIPOS>BOND
     1    35    36    2
     2    36    37   am
     3    39    37    1
     4    39    40    1
     5    40    41   ar
     6    41    42   ar
     7    42    43   ar
     8    43    44   ar
     9    44    45   ar
    10    45    46    1
    11    46    47    1
    12    47    48    1
    13    48    49    1
    14    36    34    1
    15    34    51    1
    16    51    52    1
    17    52    53   ar
    18    53    54   ar
    19    54    55   ar
    20    55    56   ar
    21    56    57   ar
    22    34    33    1
    23    33    30    1
    24    30    31    1
    25    30     1    1
    26     1     2    1
    27     2     3    1
    28     3     4    1
    29     4     5    1
    30     5    17    1
    31    17    18    1
    32    18    19   ar
    33    19    20   ar
    34    20    21   ar
    35    21    23    1
    36    23    24   ar
    37    24    25   ar
    38    25    26   ar
    39    26    27   ar
    40    27    28    1
    41    27    29   ar
    42    21    22   ar
    43     5     6    1
    44     6     7    1
    45     7     8    1
    46     8     9    2
    47     8    10   am
    48    10    12    1
    49    12    13    1
    50    13    14    1
    51    13    15    1
    52    13    16    1
    53    48    39    1
    54    57    52   ar
    55     7     2    1
    56    45    40   ar
    57    22    18   ar
    58    29    23   ar
    59    37    38    1
    60    49    50    1
    61    31    32    1
    62    10    11    1
@<TRIPOS>MOLECULE
*****
 57 62 0 0 0
SMALL
GASTEIGER

@<TRIPOS>ATOM
      1 C          62.3261   88.9508   11.7479 C.3     1  UNL1        0.1021
      2 N          61.5275   88.9266   10.4784 N.3     1  UNL1       -0.2621
      3 C          60.9293   90.1944    9.9445 C.3     1  UNL1        0.0901
      4 C          60.1306   90.1702    8.6750 C.3     1  UNL1        0.0899
      5 N          59.9301   88.8783    7.9395 N.3     1  UNL1       -0.2661
      6 C          60.5283   87.6106    8.4735 C.3     1  UNL1        0.0980
      7 C          61.3270   87.6348    9.7430 C.3     1  UNL1        0.1510
      8 C          61.9252   86.3672   10.2770 C.2     1  UNL1        0.2386
      9 O          62.8545   85.5579    9.4217 O.2     1  UNL1       -0.2736
     10 N          61.5940   85.9087   11.6663 N.am    1  UNL1       -0.2961
     11 H          60.9841   86.4398   12.2277 H       1  UNL1        0.1497
     12 C          62.1922   84.6410   12.2003 C.3     1  UNL1        0.1939
     13 C          63.5751   84.6509   12.7815 C.3     1  UNL1        0.4154
     14 F          64.9578   84.6608   13.3627 F       1  UNL1       -0.1682
     15 F          63.6597   83.1637   12.6056 F       1  UNL1       -0.1682
     16 F          63.4904   86.1381   12.9575 F       1  UNL1       -0.1682
     17 C          59.1314   88.8541    6.6701 C.3     1  UNL1        0.1008
     18 C          59.1109   90.0568    5.7739 C.ar    1  UNL1        0.0129
     19 C          57.9342   90.9545    5.5298 C.ar    1  UNL1        0.0176
     20 C          58.3595   92.0255    4.5695 C.ar    1  UNL1        0.0799
     21 N          59.7991   91.7897    4.2201 N.ar    1  UNL1       -0.3038
     22 C          60.2634   90.5730    4.9644 C.ar    1  UNL1        0.0772
     23 C          60.6286   92.6241    3.2897 C.ar    1  UNL1        0.0649
     24 C          60.0550   93.8733    2.6895 C.ar    1  UNL1        0.0176
     25 C          60.8846   94.7077    1.7590 C.ar    1  UNL1        0.0024
     26 C          62.2877   94.2928    1.4289 C.ar    1  UNL1        0.0115
     27 C          62.8613   93.0435    2.0291 C.ar    1  UNL1        0.0591
     28 CL         64.2645   92.6286    1.6989 Cl      1  UNL1       -0.0822
     29 C          62.0318   92.2092    2.9595 C.ar    1  UNL1        0.0289
     30 C          61.9779   89.9244   12.8347 C.3     1  UNL1        0.1269
     31 O          60.8505   89.6243   13.7774 O.3     1  UNL1       -0.3830
     32 H          60.4558   88.7686   13.5475 H       1  UNL1        0.2104
     33 C          62.7572   91.1980   12.9786 C.3     1  UNL1        0.0401
     34 C          64.2565   91.1676   12.9461 C.3     1  UNL1        0.0833
     35 O          64.4519   91.4781   10.3740 O.2     1  UNL1       -0.2751
     36 C          64.9919   91.7060   11.7547 C.2     1  UNL1        0.2226
     37 N          66.2675   92.4723   11.9442 N.am    1  UNL1       -0.2999
     38 H          66.6219   92.6219   12.8504 H       1  UNL1        0.1498
     39 C          67.0029   93.0107   10.7529 C.3     1  UNL1        0.1278
     40 C          66.5558   94.2905   10.1109 C.ar    1  UNL1        0.0320
     41 C          65.3732   95.0319   10.6601 C.ar    1  UNL1        0.0004
     42 C          64.9261   96.3117   10.0181 C.ar    1  UNL1       -0.0001
     43 C          65.6616   96.8501    8.8268 C.ar    1  UNL1        0.0031
     44 C          66.8442   96.1087    8.2776 C.ar    1  UNL1        0.0366
     45 C          67.2913   94.8289    8.9196 C.ar    1  UNL1        0.1362
     46 O          68.4740   94.0874    8.3703 O.3     1  UNL1       -0.4730
     47 C          68.9211   92.8076    9.0123 C.3     1  UNL1        0.2364
     48 C          68.1855   92.2693   10.2036 C.3     1  UNL1        0.1762
     49 O          68.6326   90.9895   10.8457 O.3     1  UNL1       -0.3788
     50 H          69.4042   90.6421   10.3714 H       1  UNL1        0.2106
     51 C          65.0204   90.5989   14.1050 C.3     1  UNL1        0.0371
     52 C          64.3641   89.6114   15.0237 C.ar    1  UNL1       -0.0025
     53 C          63.6079   90.0935   16.2261 C.ar    1  UNL1       -0.0011
     54 C          62.9516   89.1059   17.1449 C.ar    1  UNL1        0.0204
     55 C          63.0516   87.6364   16.8613 C.ar    1  UNL1        0.0989
     56 N          63.8079   87.1544   15.6589 N.ar    1  UNL1       -0.2426
     57 C          64.4641   88.1418   14.7401 C.ar    1  UNL1        0.0946
@<TRIPOS>BOND
     1    35    36    2
     2    36    37   am
     3    39    37    1
     4    39    40    1
     5    40    41   ar
     6    41    42   ar
     7    42    43   ar
     8    43    44   ar
     9    44    45   ar
    10    45    46    1
    11    46    47    1
    12    47    48    1
    13    48    49    1
    14    36    34    1
    15    34    51    1
    16    51    52    1
    17    52    53   ar
    18    53    54   ar
    19    54    55   ar
    20    55    56   ar
    21    56    57   ar
    22    34    33    1
    23    33    30    1
    24    30    31    1
    25    30     1    1
    26     1     2    1
    27     2     3    1
    28     3     4    1
    29     4     5    1
    30     5    17    1
    31    17    18    1
    32    18    19   ar
    33    19    20   ar
    34    20    21   ar
    35    21    23    1
    36    23    24   ar
    37    24    25   ar
    38    25    26   ar
    39    26    27   ar
    40    27    28    1
    41    27    29   ar
    42    21    22   ar
    43     5     6    1
    44     6     7    1
    45     7     8    1
    46     8     9    2
    47     8    10   am
    48    10    12    1
    49    12    13    1
    50    13    14    1
    51    13    15    1
    52    13    16    1
    53    48    39    1
    54    57    52   ar
    55     7     2    1
    56    45    40   ar
    57    22    18   ar
    58    29    23   ar
    59    37    38    1
    60    49    50    1
    61    31    32    1
    62    10    11    1
@<TRIPOS>MOLECULE
*****
 57 62 0 0 0
SMALL
GASTEIGER

@<TRIPOS>ATOM
      1 C          62.9047   89.1965   11.5067 C.3     1  UNL1        0.1021
      2 N          61.9516   89.1350   10.3501 N.3     1  UNL1       -0.2621
      3 C          61.5887   90.3881    9.6098 C.3     1  UNL1        0.0901
      4 C          60.6356   90.3266    8.4532 C.3     1  UNL1        0.0899
      5 N          60.0454   89.0119    8.0369 N.3     1  UNL1       -0.2661
      6 C          60.4082   87.7589    8.7771 C.3     1  UNL1        0.0980
      7 C          61.3614   87.8204    9.9338 C.3     1  UNL1        0.1510
      8 C          61.7242   86.5673   10.6740 C.2     1  UNL1        0.2386
      9 O          61.3869   86.4315   12.1293 O.2     1  UNL1       -0.2736
     10 N          62.4244   85.4498    9.9590 N.am    1  UNL1       -0.2961
     11 H          62.6458   85.5389    9.0039 H       1  UNL1        0.1497
     12 C          62.7873   84.1968   10.6993 C.3     1  UNL1        0.1939
     13 C          63.7675   83.2305   10.1029 C.3     1  UNL1        0.4154
     14 F          64.7477   82.2643    9.5066 F       1  UNL1       -0.1682
     15 F          63.1960   82.1299   10.9466 F       1  UNL1       -0.1682
     16 F          64.3391   84.3311    9.2592 F       1  UNL1       -0.1682
     17 C          59.0922   88.9504    6.8802 C.3     1  UNL1        0.1008
     18 C          59.0408   90.0761    5.8901 C.ar    1  UNL1        0.0129
     19 C          57.8222   90.8673    5.5171 C.ar    1  UNL1        0.0176
     20 C          58.2272   91.8883    4.4956 C.ar    1  UNL1        0.0799
     21 N          59.6961   91.7282    4.2373 N.ar    1  UNL1       -0.3038
     22 C          60.1989   90.6082    5.0991 C.ar    1  UNL1        0.0772
     23 C          60.5179   92.5447    3.2844 C.ar    1  UNL1        0.0649
     24 C          59.9168   93.7437    2.6127 C.ar    1  UNL1        0.0176
     25 C          60.7386   94.5602    1.6599 C.ar    1  UNL1        0.0024
     26 C          62.1614   94.1778    1.3788 C.ar    1  UNL1        0.0115
     27 C          62.7626   92.9788    2.0505 C.ar    1  UNL1        0.0591
     28 CL         64.1856   92.5964    1.7693 Cl      1  UNL1       -0.0822
     29 C          61.9408   92.1624    3.0033 C.ar    1  UNL1        0.0289
     30 C          63.2744   90.5218   12.1042 C.3     1  UNL1        0.1269
     31 O          62.3971   91.7172   11.8783 O.3     1  UNL1       -0.3830
     32 H          61.6389   91.4628   11.3295 H       1  UNL1        0.2104
     33 C          64.5215   90.6515   12.9277 C.3     1  UNL1        0.0401
     34 C          64.4465   90.5556   14.4227 C.3     1  UNL1        0.0833
     35 O          62.3148   89.5282   15.4953 O.2     1  UNL1       -0.2751
     36 C          63.7458   89.3955   15.0656 C.2     1  UNL1        0.2226
     37 N          64.4761   88.1027   15.2788 N.am    1  UNL1       -0.2999
     38 H          65.4153   88.0157   14.9967 H       1  UNL1        0.1498
     39 C          63.7754   86.9427   15.9216 C.3     1  UNL1        0.1278
     40 C          63.8044   85.5930   15.2677 C.ar    1  UNL1        0.0320
     41 C          64.5339   85.4034   13.9709 C.ar    1  UNL1        0.0004
     42 C          64.5629   84.0538   13.3170 C.ar    1  UNL1       -0.0001
     43 C          63.8622   82.8937   13.9598 C.ar    1  UNL1        0.0031
     44 C          63.1327   83.0833   15.2566 C.ar    1  UNL1        0.0366
     45 C          63.1037   84.4330   15.9106 C.ar    1  UNL1        0.1362
     46 O          62.3741   84.6225   17.2074 O.3     1  UNL1       -0.4730
     47 C          62.3452   85.9722   17.8614 C.3     1  UNL1        0.2364
     48 C          63.0459   87.1323   17.2184 C.3     1  UNL1        0.1762
     49 O          63.0169   88.4819   17.8724 O.3     1  UNL1       -0.3788
     50 H          62.5073   88.4312   18.6961 H       1  UNL1        0.2106
     51 C          65.0721   91.6197   15.2749 C.3     1  UNL1        0.0371
     52 C          66.5079   92.0001   15.0658 C.ar    1  UNL1       -0.0025
     53 C          67.2618   92.7089   16.1518 C.ar    1  UNL1       -0.0011
     54 C          68.6976   93.0893   15.9427 C.ar    1  UNL1        0.0204
     55 C          69.3796   92.7609   14.6477 C.ar    1  UNL1        0.0989
     56 N          68.6258   92.0521   13.5618 N.ar    1  UNL1       -0.2426
     57 C          67.1900   91.6717   13.7708 C.ar    1  UNL1        0.0946
@<TRIPOS>BOND
     1    35    36    2
     2    36    37   am
     3    39    37    1
     4    39    40    1
     5    40    41   ar
     6    41    42   ar
     7    42    43   ar
     8    43    44   ar
     9    44    45   ar
    10    45    46    1
    11    46    47    1
    12    47    48    1
    13    48    49    1
    14    36    34    1
    15    34    51    1
    16    51    52    1
    17    52    53   ar
    18    53    54   ar
    19    54    55   ar
    20    55    56   ar
    21    56    57   ar
    22    34    33    1
    23    33    30    1
    24    30    31    1
    25    30     1    1
    26     1     2    1
    27     2     3    1
    28     3     4    1
    29     4     5    1
    30     5    17    1
    31    17    18    1
    32    18    19   ar
    33    19    20   ar
    34    20    21   ar
    35    21    23    1
    36    23    24   ar
    37    24    25   ar
    38    25    26   ar
    39    26    27   ar
    40    27    28    1
    41    27    29   ar
    42    21    22   ar
    43     5     6    1
    44     6     7    1
    45     7     8    1
    46     8     9    2
    47     8    10   am
    48    10    12    1
    49    12    13    1
    50    13    14    1
    51    13    15    1
    52    13    16    1
    53    48    39    1
    54    57    52   ar
    55     7     2    1
    56    45    40   ar
    57    22    18   ar
    58    29    23   ar
    59    37    38    1
    60    49    50    1
    61    31    32    1
    62    10    11    1
@<TRIPOS>MOLECULE
*****
 57 62 0 0 0
SMALL
GASTEIGER

@<TRIPOS>ATOM
      1 C          62.7410   88.4319   11.3573 C.3     1  UNL1        0.1021
      2 N          61.7554   88.5654   10.2345 N.3     1  UNL1       -0.2621
      3 C          60.9731   89.8348   10.0702 C.3     1  UNL1        0.0901
      4 C          59.9875   89.9683    8.9473 C.3     1  UNL1        0.0899
      5 N          59.7841   88.8324    7.9888 N.3     1  UNL1       -0.2661
      6 C          60.5664   87.5632    8.1532 C.3     1  UNL1        0.0980
      7 C          61.5520   87.4297    9.2760 C.3     1  UNL1        0.1510
      8 C          62.3343   86.1605    9.4403 C.2     1  UNL1        0.2386
      9 O          63.1281   85.6145    8.2907 O.2     1  UNL1       -0.2736
     10 N          62.3228   85.4372   10.7544 N.am    1  UNL1       -0.2961
     11 H          61.8018   85.7955   11.5090 H       1  UNL1        0.1497
     12 C          63.1050   84.1679   10.9188 C.3     1  UNL1        0.1939
     13 C          62.6248   83.1081   11.8656 C.3     1  UNL1        0.4154
     14 F          62.1446   82.0484   12.8122 F       1  UNL1       -0.1682
     15 F          62.0832   84.1685   12.7778 F       1  UNL1       -0.1682
     16 F          63.1664   82.0478   10.9533 F       1  UNL1       -0.1682
     17 C          58.7985   88.9660    6.8660 C.3     1  UNL1        0.1008
     18 C          58.9364   90.0845    5.8760 C.ar    1  UNL1        0.0129
     19 C          57.8414   91.0081    5.4311 C.ar    1  UNL1        0.0176
     20 C          58.4216   91.9702    4.4374 C.ar    1  UNL1        0.0799
     21 N          59.8753   91.6413    4.2681 N.ar    1  UNL1       -0.3038
     22 C          60.1934   90.4759    5.1573 C.ar    1  UNL1        0.0772
     23 C          60.8413   92.3528    3.3678 C.ar    1  UNL1        0.0649
     24 C          62.2625   91.8828    3.2715 C.ar    1  UNL1        0.0176
     25 C          63.2284   92.5944    2.3712 C.ar    1  UNL1        0.0024
     26 C          62.7732   93.7759    1.5671 C.ar    1  UNL1        0.0115
     27 C          61.3519   94.2460    1.6633 C.ar    1  UNL1        0.0591
     28 CL         60.8967   95.4276    0.8592 Cl      1  UNL1       -0.0822
     29 C          60.3861   93.5344    2.5636 C.ar    1  UNL1        0.0289
     30 C          62.6175   89.3043   12.5713 C.3     1  UNL1        0.1269
     31 O          62.5514   90.7952   12.4200 O.3     1  UNL1       -0.3830
     32 H          62.6008   91.0272   11.4795 H       1  UNL1        0.2104
     33 C          62.5601   88.6857   13.9367 C.3     1  UNL1        0.0401
     34 C          63.5679   89.0724   14.9782 C.3     1  UNL1        0.0833
     35 O          63.6799   91.5246   15.8294 O.2     1  UNL1       -0.2751
     36 C          64.1996   90.4325   14.9422 C.2     1  UNL1        0.2226
     37 N          65.3511   90.7003   14.0189 N.am    1  UNL1       -0.2999
     38 H          65.6922   89.9835   13.4366 H       1  UNL1        0.1498
     39 C          65.9828   92.0603   13.9829 C.3     1  UNL1        0.1278
     40 C          65.8722   92.9062   12.7491 C.ar    1  UNL1        0.0320
     41 C          65.1298   92.3922   11.5514 C.ar    1  UNL1        0.0004
     42 C          65.0191   93.2381   10.3176 C.ar    1  UNL1       -0.0001
     43 C          65.6508   94.5981   10.2816 C.ar    1  UNL1        0.0031
     44 C          66.3932   95.1121   11.4793 C.ar    1  UNL1        0.0366
     45 C          66.5039   94.2662   12.7130 C.ar    1  UNL1        0.1362
     46 O          67.2464   94.7803   13.9108 O.3     1  UNL1       -0.4730
     47 C          67.3570   93.9344   15.1446 C.3     1  UNL1        0.2364
     48 C          66.7252   92.5743   15.1806 C.3     1  UNL1        0.1762
     49 O          66.8359   91.7284   16.4143 O.3     1  UNL1       -0.3788
     50 H          67.3435   92.2058   17.0892 H       1  UNL1        0.2106
     51 C          63.9440   88.0991   16.0558 C.3     1  UNL1        0.0371
     52 C          63.9357   86.6262   15.7723 C.ar    1  UNL1       -0.0025
     53 C          64.9351   86.0402   14.8194 C.ar    1  UNL1       -0.0011
     54 C          64.9268   84.5673   14.5358 C.ar    1  UNL1        0.0204
     55 C          63.9193   83.6803   15.2052 C.ar    1  UNL1        0.0989
     56 N          62.9200   84.2662   16.1582 N.ar    1  UNL1       -0.2426
     57 C          62.9282   85.7391   16.4417 C.ar    1  UNL1        0.0946
@<TRIPOS>BOND
     1    35    36    2
     2    36    37   am
     3    39    37    1
     4    39    40    1
     5    40    41   ar
     6    41    42   ar
     7    42    43   ar
     8    43    44   ar
     9    44    45   ar
    10    45    46    1
    11    46    47    1
    12    47    48    1
    13    48    49    1
    14    36    34    1
    15    34    51    1
    16    51    52    1
    17    52    53   ar
    18    53    54   ar
    19    54    55   ar
    20    55    56   ar
    21    56    57   ar
    22    34    33    1
    23    33    30    1
    24    30    31    1
    25    30     1    1
    26     1     2    1
    27     2     3    1
    28     3     4    1
    29     4     5    1
    30     5    17    1
    31    17    18    1
    32    18    19   ar
    33    19    20   ar
    34    20    21   ar
    35    21    23    1
    36    23    24   ar
    37    24    25   ar
    38    25    26   ar
    39    26    27   ar
    40    27    28    1
    41    27    29   ar
    42    21    22   ar
    43     5     6    1
    44     6     7    1
    45     7     8    1
    46     8     9    2
    47     8    10   am
    48    10    12    1
    49    12    13    1
    50    13    14    1
    51    13    15    1
    52    13    16    1
    53    48    39    1
    54    57    52   ar
    55     7     2    1
    56    45    40   ar
    57    22    18   ar
    58    29    23   ar
    59    37    38    1
    60    49    50    1
    61    31    32    1
    62    10    11    1
@<TRIPOS>MOLECULE
*****
 57 62 0 0 0
SMALL
GASTEIGER

@<TRIPOS>ATOM
      1 C          62.8704   89.1571   11.8122 C.3     1  UNL1        0.1021
      2 N          61.9554   89.0721   10.6267 N.3     1  UNL1       -0.2621
      3 C          61.5552   90.3203    9.8972 C.3     1  UNL1        0.0901
      4 C          60.6401   90.2353    8.7117 C.3     1  UNL1        0.0899
      5 N          60.1252   88.9023    8.2557 N.3     1  UNL1       -0.2661
      6 C          60.5254   87.6542    8.9852 C.3     1  UNL1        0.0980
      7 C          61.4405   87.7392   10.1707 C.3     1  UNL1        0.1510
      8 C          61.8407   86.4911   10.9001 C.2     1  UNL1        0.2386
      9 O          61.3242   86.2333   12.2846 O.2     1  UNL1       -0.2736
     10 N          62.7574   85.5008   10.2451 N.am    1  UNL1       -0.2961
     11 H          63.0963   85.6700    9.3364 H       1  UNL1        0.1497
     12 C          63.1576   84.2527   10.9746 C.3     1  UNL1        0.1939
     13 C          64.0194   83.2303   10.2948 C.3     1  UNL1        0.4154
     14 F          64.8811   82.2079    9.6150 F       1  UNL1       -0.1682
     15 F          63.6164   83.7792    8.9583 F       1  UNL1       -0.1682
     16 F          64.4223   82.6814   11.6313 F       1  UNL1       -0.1682
     17 C          59.2101   88.8173    7.0702 C.3     1  UNL1        0.1008
     18 C          59.1698   89.9365    6.0722 C.ar    1  UNL1        0.0129
     19 C          57.9651   90.7551    5.7137 C.ar    1  UNL1        0.0176
     20 C          58.3777   91.7580    4.6774 C.ar    1  UNL1        0.0799
     21 N          59.8376   91.5591    4.3954 N.ar    1  UNL1       -0.3038
     22 C          60.3270   90.4334    5.2574 C.ar    1  UNL1        0.0772
     23 C          60.6630   92.3476    3.4223 C.ar    1  UNL1        0.0649
     24 C          62.0991   91.9829    3.1888 C.ar    1  UNL1        0.0176
     25 C          62.9245   92.7714    2.2156 C.ar    1  UNL1        0.0024
     26 C          62.3138   93.9246    1.4760 C.ar    1  UNL1        0.0115
     27 C          60.8776   94.2894    1.7096 C.ar    1  UNL1        0.0591
     28 CL         60.2669   95.4426    0.9699 Cl      1  UNL1       -0.0822
     29 C          60.0523   93.5009    2.6827 C.ar    1  UNL1        0.0289
     30 C          62.5349   90.0692   12.9548 C.3     1  UNL1        0.1269
     31 O          61.6027   89.6066   14.0350 O.3     1  UNL1       -0.3830
     32 H          61.3098   88.7018   13.8437 H       1  UNL1        0.2104
     33 C          63.1316   91.4440   13.0171 C.3     1  UNL1        0.0401
     34 C          64.5340   91.6310   13.5154 C.3     1  UNL1        0.0833
     35 O          66.9934   92.2239   12.9239 O.2     1  UNL1       -0.2751
     36 C          65.5222   92.4107   12.6995 C.2     1  UNL1        0.2226
     37 N          65.0390   93.3772   11.6591 N.am    1  UNL1       -0.2999
     38 H          64.0733   93.4998   11.5117 H       1  UNL1        0.1498
     39 C          66.0270   94.1569   10.8431 C.3     1  UNL1        0.1278
     40 C          67.0328   93.4371    9.9944 C.ar    1  UNL1        0.0320
     41 C          67.0505   91.9376    9.9616 C.ar    1  UNL1        0.0004
     42 C          68.0562   91.2178    9.1129 C.ar    1  UNL1       -0.0001
     43 C          69.0443   91.9975    8.2970 C.ar    1  UNL1        0.0031
     44 C          69.0266   93.4970    8.3298 C.ar    1  UNL1        0.0366
     45 C          68.0208   94.2168    9.1785 C.ar    1  UNL1        0.1362
     46 O          68.0031   95.7164    9.2113 O.3     1  UNL1       -0.4730
     47 C          66.9974   96.4362   10.0600 C.3     1  UNL1        0.2364
     48 C          66.0093   95.6564   10.8759 C.3     1  UNL1        0.1762
     49 O          65.0035   96.3762   11.7247 O.3     1  UNL1       -0.3788
     50 H          65.1283   97.3337   11.6320 H       1  UNL1        0.2106
     51 C          64.9483   91.0383   14.8296 C.3     1  UNL1        0.0371
     52 C          64.3945   89.7134   15.2627 C.ar    1  UNL1       -0.0025
     53 C          64.8350   88.4553   14.5748 C.ar    1  UNL1       -0.0011
     54 C          64.2810   87.1303   15.0080 C.ar    1  UNL1        0.0204
     55 C          63.2867   87.0634   16.1290 C.ar    1  UNL1        0.0989
     56 N          62.8462   88.3215   16.8169 N.ar    1  UNL1       -0.2426
     57 C          63.4000   89.6464   16.3838 C.ar    1  UNL1        0.0946
@<TRIPOS>BOND
     1    35    36    2
     2    36    37   am
     3    39    37    1
     4    39    40    1
     5    40    41   ar
     6    41    42   ar
     7    42    43   ar
     8    43    44   ar
     9    44    45   ar
    10    45    46    1
    11    46    47    1
    12    47    48    1
    13    48    49    1
    14    36    34    1
    15    34    51    1
    16    51    52    1
    17    52    53   ar
    18    53    54   ar
    19    54    55   ar
    20    55    56   ar
    21    56    57   ar
    22    34    33    1
    23    33    30    1
    24    30    31    1
    25    30     1    1
    26     1     2    1
    27     2     3    1
    28     3     4    1
    29     4     5    1
    30     5    17    1
    31    17    18    1
    32    18    19   ar
    33    19    20   ar
    34    20    21   ar
    35    21    23    1
    36    23    24   ar
    37    24    25   ar
    38    25    26   ar
    39    26    27   ar
    40    27    28    1
    41    27    29   ar
    42    21    22   ar
    43     5     6    1
    44     6     7    1
    45     7     8    1
    46     8     9    2
    47     8    10   am
    48    10    12    1
    49    12    13    1
    50    13    14    1
    51    13    15    1
    52    13    16    1
    53    48    39    1
    54    57    52   ar
    55     7     2    1
    56    45    40   ar
    57    22    18   ar
    58    29    23   ar
    59    37    38    1
    60    49    50    1
    61    31    32    1
    62    10    11    1
@<TRIPOS>MOLECULE
*****
 57 62 0 0 0
SMALL
GASTEIGER

@<TRIPOS>ATOM
      1 C          63.2709   89.3459   11.8858 C.3     1  UNL1        0.1021
      2 N          63.3675   88.0697   12.6682 N.3     1  UNL1       -0.2621
      3 C          64.1789   88.0225   13.9289 C.3     1  UNL1        0.0901
      4 C          64.2756   86.7463   14.7113 C.3     1  UNL1        0.0899
      5 N          63.5607   85.5174   14.2329 N.3     1  UNL1       -0.2661
      6 C          62.7494   85.5647   12.9722 C.3     1  UNL1        0.0980
      7 C          62.6527   86.8408   12.1898 C.3     1  UNL1        0.1510
      8 C          61.8414   86.8881   10.9291 C.2     1  UNL1        0.2386
      9 O          60.6083   87.7396   10.8623 O.2     1  UNL1       -0.2736
     10 N          62.2631   86.0838    9.7352 N.am    1  UNL1       -0.2961
     11 H          63.0724   85.5250    9.7791 H       1  UNL1        0.1497
     12 C          61.4517   86.1311    8.4745 C.3     1  UNL1        0.1939
     13 C          61.8030   85.2369    7.3225 C.3     1  UNL1        0.4154
     14 F          62.1542   84.3427    6.1706 F       1  UNL1       -0.1682
     15 F          63.2348   85.2238    7.7692 F       1  UNL1       -0.1682
     16 F          60.3711   85.2499    6.8758 F       1  UNL1       -0.1682
     17 C          63.6573   84.2412   15.0152 C.3     1  UNL1        0.1008
     18 C          63.1423   82.9606   14.4279 C.ar    1  UNL1        0.0129
     19 C          62.1839   82.0120   15.0849 C.ar    1  UNL1        0.0176
     20 C          61.9444   80.8690   14.1436 C.ar    1  UNL1        0.0799
     21 N          62.7549   81.1112   12.9048 N.ar    1  UNL1       -0.3038
     22 C          63.4952   82.4039   13.0805 C.ar    1  UNL1        0.0772
     23 C          62.8146   80.2175   11.7015 C.ar    1  UNL1        0.0649
     24 C          62.9119   80.8137   10.3285 C.ar    1  UNL1        0.0176
     25 C          62.9716   79.9201    9.1253 C.ar    1  UNL1        0.0024
     26 C          62.9339   78.4303    9.2950 C.ar    1  UNL1        0.0115
     27 C          62.8367   77.8339   10.6680 C.ar    1  UNL1        0.0591
     28 CL         62.7991   76.3441   10.8377 Cl      1  UNL1       -0.0822
     29 C          62.7770   78.7276   11.8712 C.ar    1  UNL1        0.0289
     30 C          62.4877   90.5029   12.4319 C.3     1  UNL1        0.1269
     31 O          61.0684   90.7194   11.9977 O.3     1  UNL1       -0.3830
     32 H          60.8142   90.0278   11.3668 H       1  UNL1        0.2104
     33 C          63.1240   91.4433   13.4121 C.3     1  UNL1        0.0401
     34 C          64.5954   91.7244   13.3351 C.3     1  UNL1        0.0833
     35 O          64.9531   92.0187   10.7786 O.2     1  UNL1       -0.2751
     36 C          65.1499   92.5084   12.1826 C.2     1  UNL1        0.2226
     37 N          65.9011   93.7821   12.4344 N.am    1  UNL1       -0.2999
     38 H          66.0302   94.1035   13.3559 H       1  UNL1        0.1498
     39 C          66.4555   94.5661   11.2821 C.3     1  UNL1        0.1278
     40 C          67.2660   93.8752   10.2257 C.ar    1  UNL1        0.0320
     41 C          67.5220   92.4003   10.3217 C.ar    1  UNL1        0.0004
     42 C          68.3324   91.7095    9.2653 C.ar    1  UNL1       -0.0001
     43 C          68.8869   92.4934    8.1130 C.ar    1  UNL1        0.0031
     44 C          68.6309   93.9683    8.0171 C.ar    1  UNL1        0.0366
     45 C          67.8205   94.6592    9.0734 C.ar    1  UNL1        0.1362
     46 O          67.5645   96.1341    8.9774 O.3     1  UNL1       -0.4730
     47 C          66.7541   96.8250   10.0337 C.3     1  UNL1        0.2364
     48 C          66.1996   96.0409   11.1861 C.3     1  UNL1        0.1762
     49 O          65.3891   96.7318   12.2424 O.3     1  UNL1       -0.3788
     50 H          65.3195   97.6758   12.0307 H       1  UNL1        0.2106
     51 C          65.5123   91.2216   14.4104 C.3     1  UNL1        0.0371
     52 C          66.7873   91.9523   14.7111 C.ar    1  UNL1       -0.0025
     53 C          66.8421   92.9278   15.8493 C.ar    1  UNL1       -0.0011
     54 C          68.1171   93.6585   16.1500 C.ar    1  UNL1        0.0204
     55 C          69.3372   93.4138   15.3126 C.ar    1  UNL1        0.0989
     56 N          69.2824   92.4384   14.1744 N.ar    1  UNL1       -0.2426
     57 C          68.0075   91.7076   13.8736 C.ar    1  UNL1        0.0946
@<TRIPOS>BOND
     1    35    36    2
     2    36    37   am
     3    39    37    1
     4    39    40    1
     5    40    41   ar
     6    41    42   ar
     7    42    43   ar
     8    43    44   ar
     9    44    45   ar
    10    45    46    1
    11    46    47    1
    12    47    48    1
    13    48    49    1
    14    36    34    1
    15    34    51    1
    16    51    52    1
    17    52    53   ar
    18    53    54   ar
    19    54    55   ar
    20    55    56   ar
    21    56    57   ar
    22    34    33    1
    23    33    30    1
    24    30    31    1
    25    30     1    1
    26     1     2    1
    27     2     3    1
    28     3     4    1
    29     4     5    1
    30     5    17    1
    31    17    18    1
    32    18    19   ar
    33    19    20   ar
    34    20    21   ar
    35    21    23    1
    36    23    24   ar
    37    24    25   ar
    38    25    26   ar
    39    26    27   ar
    40    27    28    1
    41    27    29   ar
    42    21    22   ar
    43     5     6    1
    44     6     7    1
    45     7     8    1
    46     8     9    2
    47     8    10   am
    48    10    12    1
    49    12    13    1
    50    13    14    1
    51    13    15    1
    52    13    16    1
    53    48    39    1
    54    57    52   ar
    55     7     2    1
    56    45    40   ar
    57    22    18   ar
    58    29    23   ar
    59    37    38    1
    60    49    50    1
    61    31    32    1
    62    10    11    1
@<TRIPOS>MOLECULE
*****
 57 62 0 0 0
SMALL
GASTEIGER

@<TRIPOS>ATOM
      1 C          63.0032   88.5807   10.8387 C.3     1  UNL1        0.1021
      2 N          61.9140   88.7226    9.8171 N.3     1  UNL1       -0.2621
      3 C          61.2523   90.0521    9.6060 C.3     1  UNL1        0.0901
      4 C          60.1632   90.1940    8.5845 C.3     1  UNL1        0.0899
      5 N          59.7357   89.0063    7.7740 N.3     1  UNL1       -0.2661
      6 C          60.3974   87.6768    7.9852 C.3     1  UNL1        0.0980
      7 C          61.4865   87.5350    9.0067 C.3     1  UNL1        0.1510
      8 C          62.1482   86.2055    9.2179 C.2     1  UNL1        0.2386
      9 O          63.1897   85.7241    8.2516 O.2     1  UNL1       -0.2736
     10 N          61.7685   85.3573   10.3954 N.am    1  UNL1       -0.2961
     11 H          61.0850   85.6732   11.0296 H       1  UNL1        0.1497
     12 C          62.4302   84.0278   10.6065 C.3     1  UNL1        0.1939
     13 C          63.6528   83.9272   11.4699 C.3     1  UNL1        0.4154
     14 F          64.8753   83.8266   12.3332 F       1  UNL1       -0.1682
     15 F          62.8690   84.4435   12.6400 F       1  UNL1       -0.1682
     16 F          64.4365   83.4109   10.2998 F       1  UNL1       -0.1682
     17 C          58.6465   89.1481    6.7525 C.3     1  UNL1        0.1008
     18 C          58.7053   90.2555    5.7423 C.ar    1  UNL1        0.0129
     19 C          57.5391   91.0552    5.2418 C.ar    1  UNL1        0.0176
     20 C          58.0536   92.0515    4.2455 C.ar    1  UNL1        0.0799
     21 N          59.5379   91.8674    4.1301 N.ar    1  UNL1       -0.3038
     22 C          59.9406   90.7574    5.0552 C.ar    1  UNL1        0.0772
     23 C          60.4578   92.6550    3.2450 C.ar    1  UNL1        0.0649
     24 C          59.9883   93.9395    2.6290 C.ar    1  UNL1        0.0176
     25 C          60.9082   94.7271    1.7439 C.ar    1  UNL1        0.0024
     26 C          62.2977   94.2302    1.4749 C.ar    1  UNL1        0.0115
     27 C          62.7673   92.9457    2.0910 C.ar    1  UNL1        0.0591
     28 CL         64.1568   92.4488    1.8220 Cl      1  UNL1       -0.0822
     29 C          61.8474   92.1582    2.9760 C.ar    1  UNL1        0.0289
     30 C          62.7084   87.9478   12.1664 C.3     1  UNL1        0.1269
     31 O          61.2965   87.6006   12.5348 O.3     1  UNL1       -0.3830
     32 H          60.7026   87.8491   11.8092 H       1  UNL1        0.2104
     33 C          63.8257   87.6622   13.1256 C.3     1  UNL1        0.0401
     34 C          63.9789   88.4906   14.3666 C.3     1  UNL1        0.0833
     35 O          63.5227   90.9776   14.9638 O.2     1  UNL1       -0.2751
     36 C          64.3469   89.9409   14.2596 C.2     1  UNL1        0.2226
     37 N          65.5389   90.3543   13.4484 N.am    1  UNL1       -0.2999
     38 H          66.0798   89.6738   12.9862 H       1  UNL1        0.1498
     39 C          65.9069   91.8045   13.3414 C.3     1  UNL1        0.1278
     40 C          66.8466   92.4154   14.3382 C.ar    1  UNL1        0.0320
     41 C          67.4185   91.5761   15.4421 C.ar    1  UNL1        0.0004
     42 C          68.3582   92.1870   16.4389 C.ar    1  UNL1       -0.0001
     43 C          68.7262   93.6372   16.3319 C.ar    1  UNL1        0.0031
     44 C          68.1544   94.4765   15.2280 C.ar    1  UNL1        0.0366
     45 C          67.2146   93.8656   14.2312 C.ar    1  UNL1        0.1362
     46 O          66.6428   94.7050   13.1273 O.3     1  UNL1       -0.4730
     47 C          65.7030   94.0941   12.1305 C.3     1  UNL1        0.2364
     48 C          65.3351   92.6438   12.2375 C.3     1  UNL1        0.1762
     49 O          64.3953   92.0329   11.2407 O.3     1  UNL1       -0.3788
     50 H          64.1210   92.7072   10.5996 H       1  UNL1        0.2106
     51 C          63.7642   87.8688   15.7147 C.3     1  UNL1        0.0371
     52 C          63.5657   86.3868   15.8341 C.ar    1  UNL1       -0.0025
     53 C          64.5734   85.4452   15.2443 C.ar    1  UNL1       -0.0011
     54 C          64.3748   83.9632   15.3637 C.ar    1  UNL1        0.0204
     55 C          63.1686   83.4228   16.0729 C.ar    1  UNL1        0.0989
     56 N          62.1609   84.3645   16.6627 N.ar    1  UNL1       -0.2426
     57 C          62.3594   85.8464   16.5433 C.ar    1  UNL1        0.0946
@<TRIPOS>BOND
     1    35    36    2
     2    36    37   am
     3    39    37    1
     4    39    40    1
     5    40    41   ar
     6    41    42   ar
     7    42    43   ar
     8    43    44   ar
     9    44    45   ar
    10    45    46    1
    11    46    47    1
    12    47    48    1
    13    48    49    1
    14    36    34    1
    15    34    51    1
    16    51    52    1
    17    52    53   ar
    18    53    54   ar
    19    54    55   ar
    20    55    56   ar
    21    56    57   ar
    22    34    33    1
    23    33    30    1
    24    30    31    1
    25    30     1    1
    26     1     2    1
    27     2     3    1
    28     3     4    1
    29     4     5    1
    30     5    17    1
    31    17    18    1
    32    18    19   ar
    33    19    20   ar
    34    20    21   ar
    35    21    23    1
    36    23    24   ar
    37    24    25   ar
    38    25    26   ar
    39    26    27   ar
    40    27    28    1
    41    27    29   ar
    42    21    22   ar
    43     5     6    1
    44     6     7    1
    45     7     8    1
    46     8     9    2
    47     8    10   am
    48    10    12    1
    49    12    13    1
    50    13    14    1
    51    13    15    1
    52    13    16    1
    53    48    39    1
    54    57    52   ar
    55     7     2    1
    56    45    40   ar
    57    22    18   ar
    58    29    23   ar
    59    37    38    1
    60    49    50    1
    61    31    32    1
    62    10    11    1
@<TRIPOS>MOLECULE
*****
 57 62 0 0 0
SMALL
GASTEIGER

@<TRIPOS>ATOM
      1 C          62.9205   90.2673   12.0221 C.3     1  UNL1        0.1021
      2 N          63.2649   89.0022   12.7505 N.3     1  UNL1       -0.2621
      3 C          62.8400   87.6761   12.1927 C.3     1  UNL1        0.0901
      4 C          63.1845   86.4109   12.9211 C.3     1  UNL1        0.0899
      5 N          63.9537   86.4718   14.2075 N.3     1  UNL1       -0.2661
      6 C          64.3785   87.7978   14.7653 C.3     1  UNL1        0.0980
      7 C          64.0341   89.0630   14.0368 C.3     1  UNL1        0.1510
      8 C          64.4589   90.3890   14.5946 C.2     1  UNL1        0.2386
      9 O          63.5271   91.1642   15.4782 O.2     1  UNL1       -0.2736
     10 N          65.8156   90.9398   14.2689 N.am    1  UNL1       -0.2961
     11 H          66.4272   90.4310   13.6890 H       1  UNL1        0.1497
     12 C          66.2404   92.2658   14.8267 C.3     1  UNL1        0.1939
     13 C          67.4542   92.3566   15.7034 C.3     1  UNL1        0.4154
     14 F          68.6679   92.4474   16.5801 F       1  UNL1       -0.1682
     15 F          66.5840   92.7171   16.8708 F       1  UNL1       -0.1682
     16 F          68.3243   91.9961   14.5360 F       1  UNL1       -0.1682
     17 C          64.2981   85.2066   14.9360 C.3     1  UNL1        0.1008
     18 C          63.7352   83.8963   14.4708 C.ar    1  UNL1        0.0129
     19 C          62.9205   82.9442   15.2953 C.ar    1  UNL1        0.0176
     20 C          62.5699   81.7676   14.4335 C.ar    1  UNL1        0.0799
     21 N          63.1681   81.9925   13.0764 N.ar    1  UNL1       -0.3038
     22 C          63.8882   83.3081   13.0994 C.ar    1  UNL1        0.0772
     23 C          63.0642   81.0646   11.9024 C.ar    1  UNL1        0.0649
     24 C          63.1919   81.6023   10.5079 C.ar    1  UNL1        0.0176
     25 C          63.0881   80.6744    9.3339 C.ar    1  UNL1        0.0024
     26 C          62.8566   79.2089    9.5544 C.ar    1  UNL1        0.0115
     27 C          62.7289   78.6712   10.9489 C.ar    1  UNL1        0.0591
     28 CL         62.4974   77.2057   11.1694 Cl      1  UNL1       -0.0822
     29 C          62.8327   79.5991   12.1228 C.ar    1  UNL1        0.0289
     30 C          61.8862   90.2495   10.9357 C.3     1  UNL1        0.1269
     31 O          60.6610   91.1068   11.0525 O.3     1  UNL1       -0.3830
     32 H          60.6936   91.6060   11.8835 H       1  UNL1        0.2104
     33 C          62.0773   89.3743    9.7326 C.3     1  UNL1        0.0401
     34 C          60.8848   88.8143    9.0155 C.3     1  UNL1        0.0833
     35 O          59.1728   90.7386    8.6751 O.2     1  UNL1       -0.2751
     36 C          60.0795   89.6901    8.1020 C.2     1  UNL1        0.2226
     37 N          60.1809   89.5174    6.6154 N.am    1  UNL1       -0.2999
     38 H          60.7760   88.8292    6.2393 H       1  UNL1        0.1498
     39 C          59.3756   90.3931    5.7019 C.3     1  UNL1        0.1278
     40 C          60.0629   91.2133    4.6508 C.ar    1  UNL1        0.0320
     41 C          61.5555   91.1578    4.5131 C.ar    1  UNL1        0.0004
     42 C          62.2428   91.9779    3.4619 C.ar    1  UNL1       -0.0001
     43 C          61.4375   92.8537    2.5485 C.ar    1  UNL1        0.0031
     44 C          59.9449   92.9093    2.6862 C.ar    1  UNL1        0.0366
     45 C          59.2576   92.0891    3.7373 C.ar    1  UNL1        0.1362
     46 O          57.7649   92.1447    3.8750 O.3     1  UNL1       -0.4730
     47 C          57.0776   91.3245    4.9261 C.3     1  UNL1        0.2364
     48 C          57.8830   90.4487    5.8396 C.3     1  UNL1        0.1762
     49 O          57.1957   89.6285    6.8908 O.3     1  UNL1       -0.3788
     50 H          56.2386   89.7796    6.8442 H       1  UNL1        0.2106
     51 C          60.4976   87.3785    9.2117 C.3     1  UNL1        0.0371
     52 C          61.0885   86.3156    8.3337 C.ar    1  UNL1       -0.0025
     53 C          62.5064   85.8729    8.5423 C.ar    1  UNL1       -0.0011
     54 C          63.0972   84.8099    7.6642 C.ar    1  UNL1        0.0204
     55 C          62.2701   84.1897    6.5774 C.ar    1  UNL1        0.0989
     56 N          60.8522   84.6323    6.3687 N.ar    1  UNL1       -0.2426
     57 C          60.2614   85.6952    7.2468 C.ar    1  UNL1        0.0946
@<TRIPOS>BOND
     1    35    36    2
     2    36    37   am
     3    39    37    1
     4    39    40    1
     5    40    41   ar
     6    41    42   ar
     7    42    43   ar
     8    43    44   ar
     9    44    45   ar
    10    45    46    1
    11    46    47    1
    12    47    48    1
    13    48    49    1
    14    36    34    1
    15    34    51    1
    16    51    52    1
    17    52    53   ar
    18    53    54   ar
    19    54    55   ar
    20    55    56   ar
    21    56    57   ar
    22    34    33    1
    23    33    30    1
    24    30    31    1
    25    30     1    1
    26     1     2    1
    27     2     3    1
    28     3     4    1
    29     4     5    1
    30     5    17    1
    31    17    18    1
    32    18    19   ar
    33    19    20   ar
    34    20    21   ar
    35    21    23    1
    36    23    24   ar
    37    24    25   ar
    38    25    26   ar
    39    26    27   ar
    40    27    28    1
    41    27    29   ar
    42    21    22   ar
    43     5     6    1
    44     6     7    1
    45     7     8    1
    46     8     9    2
    47     8    10   am
    48    10    12    1
    49    12    13    1
    50    13    14    1
    51    13    15    1
    52    13    16    1
    53    48    39    1
    54    57    52   ar
    55     7     2    1
    56    45    40   ar
    57    22    18   ar
    58    29    23   ar
    59    37    38    1
    60    49    50    1
    61    31    32    1
    62    10    11    1
