@<TRIPOS>MOLECULE
*****
 33 37 0 0 0
SMALL
GASTEIGER

@<TRIPOS>ATOM
      1 C          67.3849   93.9244   15.3485 C.3     1  UNL1        0.1287
      2 P          66.7149   92.6086   15.0842 P.3     1  UNL1        0.3439
      3 O          67.4521   92.2763   16.3476 O.2     1  UNL1       -0.2577
      4 O          66.3008   91.1775   15.2586 O.3     1  UNL1       -0.2940
      5 C          65.3823   90.5356   14.2614 C.3     1  UNL1        0.1538
      6 C          64.8778   91.3248   13.0899 C.3     1  UNL1        0.0611
      7 C          64.3733   92.1140   11.9183 C.3     1  UNL1        0.0051
      8 C          63.4548   91.4721   10.9212 C.3     1  UNL1        0.0022
      9 C          63.0407   90.0410   11.0956 C.3     1  UNL1        0.0268
     10 C          63.5452   89.2518   12.2672 C.3     1  UNL1        0.1420
     11 C          63.1312   87.8206   12.4416 C.ar    1  UNL1        0.0616
     12 C          62.2127   87.1787   11.4445 C.ar    1  UNL1        0.1407
     13 F          61.5371   87.6550   10.1928 F       1  UNL1       -0.2043
     14 C          61.7987   85.7476   11.6189 C.ar    1  UNL1        0.0319
     15 C          62.3032   84.9583   12.7905 C.ar    1  UNL1        0.0351
     16 C          63.2217   85.6002   13.7876 C.ar    1  UNL1        0.1737
     17 F          63.7262   84.8110   14.9592 F       1  UNL1       -0.2010
     18 C          63.6357   87.0314   13.6132 C.ar    1  UNL1        0.1654
     19 O          64.5543   87.6733   14.6103 O.3     1  UNL1       -0.4733
     20 C          64.9683   89.1044   14.4359 C.3     1  UNL1        0.2075
     21 C          64.4638   89.8937   13.2643 C.3     1  UNL1        0.0732
     22 C          65.2918   92.7559   12.9155 C.3     1  UNL1        0.1538
     23 O          66.2104   93.3978   13.9126 O.3     1  UNL1       -0.2940
     24 S          62.6267   88.6099   11.2700 S.O2    1  UNL1        0.0093
     25 O          62.9403   88.3526   10.5838 O.2     1  UNL1       -0.1684
     26 O          61.2821   88.6555   11.9333 O.2     1  UNL1       -0.1684
     27 C          61.7082   87.9680   10.2729 C.ar    1  UNL1        0.1059
     28 C          62.2607   87.0355    9.2360 C.ar    1  UNL1        0.0192
     29 C          61.3422   86.3936    8.2389 C.ar    1  UNL1        0.0127
     30 C          59.8711   86.6842    8.2786 C.ar    1  UNL1        0.0578
     31 CL         58.9526   86.0423    7.2815 Cl      1  UNL1       -0.0822
     32 C          59.3186   87.6168    9.3155 C.ar    1  UNL1        0.0127
     33 C          60.2371   88.2587   10.3127 C.ar    1  UNL1        0.0192
@<TRIPOS>BOND
     1     1     2    1
     2     2     3    2
     3     2     4    1
     4     4     5    1
     5     5     6    1
     6     6     7    1
     7     7     8    1
     8     8     9    1
     9     9    10    1
    10    10    24    1
    11    24    25    2
    12    24    26    2
    13    24    27    1
    14    27    28   ar
    15    28    29   ar
    16    29    30   ar
    17    30    31    1
    18    30    32   ar
    19    32    33   ar
    20    10    11    1
    21    11    12   ar
    22    12    13    1
    23    12    14   ar
    24    14    15   ar
    25    15    16   ar
    26    16    17    1
    27    16    18   ar
    28    18    19    1
    29    19    20    1
    30    21    20    1
    31     6    22    1
    32    22    23    1
    33    23     2    1
    34    21     6    1
    35    21    10    1
    36    33    27   ar
    37    18    11   ar
@<TRIPOS>MOLECULE
*****
 33 37 0 0 0
SMALL
GASTEIGER

@<TRIPOS>ATOM
      1 C          62.7878   80.0879   13.0653 C.3     1  UNL1        0.1287
      2 P          62.7352   81.5455   12.7150 P.3     1  UNL1        0.3439
      3 O          62.0545   80.9636   11.5116 O.2     1  UNL1       -0.2577
      4 O          62.4461   82.8010   11.9467 O.3     1  UNL1       -0.2940
      5 C          62.8560   84.1321   12.5035 C.3     1  UNL1        0.1538
      6 C          63.5549   84.2078   13.8286 C.3     1  UNL1        0.0611
      7 C          64.2539   84.2835   15.1536 C.3     1  UNL1        0.0051
      8 C          64.6638   85.6146   15.7104 C.3     1  UNL1        0.0022
      9 C          64.3747   86.8701   14.9422 C.3     1  UNL1        0.0268
     10 C          63.6758   86.7944   13.6171 C.3     1  UNL1        0.1420
     11 C          63.3867   88.0499   12.8488 C.ar    1  UNL1        0.0616
     12 C          63.7966   89.3811   13.4056 C.ar    1  UNL1        0.1407
     13 F          64.4917   89.8158   14.6618 F       1  UNL1       -0.2043
     14 C          63.5076   90.6366   12.6374 C.ar    1  UNL1        0.0319
     15 C          62.8086   90.5609   11.3123 C.ar    1  UNL1        0.0351
     16 C          62.3987   89.2298   10.7555 C.ar    1  UNL1        0.1737
     17 F          61.6998   89.1541    9.4305 F       1  UNL1       -0.2010
     18 C          62.6878   87.9743   11.5238 C.ar    1  UNL1        0.1654
     19 O          62.2779   86.6431   10.9670 O.3     1  UNL1       -0.4733
     20 C          62.5670   85.3876   11.7352 C.3     1  UNL1        0.2075
     21 C          63.2659   85.4633   13.0603 C.3     1  UNL1        0.0732
     22 C          63.8440   82.9523   14.5968 C.3     1  UNL1        0.1538
     23 O          63.4341   81.6212   14.0400 O.3     1  UNL1       -0.2940
     24 S          64.0857   88.1256   14.1739 S.O2    1  UNL1        0.0093
     25 O          64.5381   88.5984   13.7188 O.2     1  UNL1       -0.1684
     26 O          63.4609   88.1568   15.5372 O.2     1  UNL1       -0.1684
     27 C          64.4956   89.4567   14.7307 C.ar    1  UNL1        0.1059
     28 C          63.6123   90.1612   15.7174 C.ar    1  UNL1        0.0192
     29 C          64.0222   91.4923   16.2742 C.ar    1  UNL1        0.0127
     30 C          65.3154   92.1190   15.8444 C.ar    1  UNL1        0.0578
     31 CL         65.7253   93.4502   16.4012 Cl      1  UNL1       -0.0822
     32 C          66.1988   91.4146   14.8577 C.ar    1  UNL1        0.0127
     33 C          65.7889   90.0834   14.3009 C.ar    1  UNL1        0.0192
@<TRIPOS>BOND
     1     1     2    1
     2     2     3    2
     3     2     4    1
     4     4     5    1
     5     5     6    1
     6     6     7    1
     7     7     8    1
     8     8     9    1
     9     9    10    1
    10    10    24    1
    11    24    25    2
    12    24    26    2
    13    24    27    1
    14    27    28   ar
    15    28    29   ar
    16    29    30   ar
    17    30    31    1
    18    30    32   ar
    19    32    33   ar
    20    10    11    1
    21    11    12   ar
    22    12    13    1
    23    12    14   ar
    24    14    15   ar
    25    15    16   ar
    26    16    17    1
    27    16    18   ar
    28    18    19    1
    29    19    20    1
    30    21    20    1
    31     6    22    1
    32    22    23    1
    33    23     2    1
    34    21     6    1
    35    21    10    1
    36    33    27   ar
    37    18    11   ar
@<TRIPOS>MOLECULE
*****
 33 37 0 0 0
SMALL
GASTEIGER

@<TRIPOS>ATOM
      1 C          67.1265   96.8558   10.1178 C.3     1  UNL1        0.1287
      2 P          66.3665   95.5662   10.2143 P.3     1  UNL1        0.3439
      3 O          66.0787   95.9321    8.7883 O.2     1  UNL1       -0.2577
      4 O          65.5065   94.4037    9.8155 O.3     1  UNL1       -0.2940
      5 C          65.1983   93.3231   10.8091 C.3     1  UNL1        0.1538
      6 C          65.7500   93.4050   12.2015 C.3     1  UNL1        0.0611
      7 C          66.3017   93.4869   13.5939 C.3     1  UNL1        0.0051
      8 C          65.9935   92.4063   14.5876 C.3     1  UNL1        0.0022
      9 C          65.1336   91.2438   14.1888 C.3     1  UNL1        0.0268
     10 C          64.5819   91.1619   12.7964 C.3     1  UNL1        0.1420
     11 C          63.7219   89.9993   12.3975 C.ar    1  UNL1        0.0616
     12 C          63.4137   88.9187   13.3912 C.ar    1  UNL1        0.1407
     13 F          63.7859   88.6849   14.8253 F       1  UNL1       -0.2043
     14 C          62.5538   87.7562   12.9924 C.ar    1  UNL1        0.0319
     15 C          62.0020   87.6743   11.5999 C.ar    1  UNL1        0.0351
     16 C          62.3102   88.7549   10.6063 C.ar    1  UNL1        0.1737
     17 F          61.7585   88.6730    9.2139 F       1  UNL1       -0.2010
     18 C          63.1702   89.9174   11.0051 C.ar    1  UNL1        0.1654
     19 O          63.4784   90.9980   10.0115 O.3     1  UNL1       -0.4733
     20 C          64.3383   92.1605   10.4103 C.3     1  UNL1        0.2075
     21 C          64.8901   92.2425   11.8028 C.3     1  UNL1        0.0732
     22 C          66.6100   94.5675   12.6003 C.3     1  UNL1        0.1538
     23 O          66.9182   95.6481   11.6067 O.3     1  UNL1       -0.2940
     24 S          64.2737   90.0813   13.7900 S.O2    1  UNL1        0.0093
     25 O          64.8672   89.5986   14.0142 O.2     1  UNL1       -0.1684
     26 O          62.8129   90.2603   14.0796 O.2     1  UNL1       -0.1684
     27 C          63.9655   89.0007   14.7837 C.ar    1  UNL1        0.1059
     28 C          64.5357   87.6258   14.5976 C.ar    1  UNL1        0.0192
     29 C          64.2275   86.5452   15.5912 C.ar    1  UNL1        0.0127
     30 C          63.3491   86.8395   16.7709 C.ar    1  UNL1        0.0578
     31 CL         63.0409   85.7589   17.7646 Cl      1  UNL1       -0.0822
     32 C          62.7788   88.2144   16.9571 C.ar    1  UNL1        0.0127
     33 C          63.0870   89.2950   15.9634 C.ar    1  UNL1        0.0192
@<TRIPOS>BOND
     1     1     2    1
     2     2     3    2
     3     2     4    1
     4     4     5    1
     5     5     6    1
     6     6     7    1
     7     7     8    1
     8     8     9    1
     9     9    10    1
    10    10    24    1
    11    24    25    2
    12    24    26    2
    13    24    27    1
    14    27    28   ar
    15    28    29   ar
    16    29    30   ar
    17    30    31    1
    18    30    32   ar
    19    32    33   ar
    20    10    11    1
    21    11    12   ar
    22    12    13    1
    23    12    14   ar
    24    14    15   ar
    25    15    16   ar
    26    16    17    1
    27    16    18   ar
    28    18    19    1
    29    19    20    1
    30    21    20    1
    31     6    22    1
    32    22    23    1
    33    23     2    1
    34    21     6    1
    35    21    10    1
    36    33    27   ar
    37    18    11   ar
@<TRIPOS>MOLECULE
*****
 33 37 0 0 0
SMALL
GASTEIGER

@<TRIPOS>ATOM
      1 C          58.6551   87.2743    6.6666 C.3     1  UNL1        0.1287
      2 P          59.5300   87.0865    7.8705 P.3     1  UNL1        0.3439
      3 O          59.1954   85.6563    7.5660 O.2     1  UNL1       -0.2577
      4 O          60.2887   86.4020    8.9686 O.3     1  UNL1       -0.2940
      5 C          61.0781   87.2129    9.9531 C.3     1  UNL1        0.1538
      6 C          61.1089   88.7082    9.8395 C.3     1  UNL1        0.0611
      7 C          61.1397   90.2036    9.7260 C.3     1  UNL1        0.0051
      8 C          61.9291   91.0144   10.7105 C.3     1  UNL1        0.0022
      9 C          62.6878   90.3300   11.8086 C.3     1  UNL1        0.0268
     10 C          62.6570   88.8346   11.9222 C.3     1  UNL1        0.1420
     11 C          63.4157   88.1501   13.0203 C.ar    1  UNL1        0.0616
     12 C          64.2051   88.9609   14.0048 C.ar    1  UNL1        0.1407
     13 F          64.4512   90.4295   14.1855 F       1  UNL1       -0.2043
     14 C          64.9638   88.2765   15.1029 C.ar    1  UNL1        0.0319
     15 C          64.9330   86.7810   15.2166 C.ar    1  UNL1        0.0351
     16 C          64.1436   85.9702   14.2321 C.ar    1  UNL1        0.1737
     17 F          64.1128   84.4748   14.3457 F       1  UNL1       -0.2010
     18 C          63.3849   86.6547   13.1339 C.ar    1  UNL1        0.1654
     19 O          62.5955   85.8438   12.1494 O.3     1  UNL1       -0.4733
     20 C          61.8368   86.5283   11.0513 C.3     1  UNL1        0.2075
     21 C          61.8676   88.0237   10.9377 C.3     1  UNL1        0.0732
     22 C          60.3502   89.3927    8.7414 C.3     1  UNL1        0.1538
     23 O          59.5608   88.5818    7.7569 O.3     1  UNL1       -0.2940
     24 S          63.4464   89.6455   12.9067 S.O2    1  UNL1        0.0093
     25 O          64.1845   89.8670   12.7027 O.2     1  UNL1       -0.1684
     26 O          62.5186   89.8021   14.0748 O.2     1  UNL1       -0.1684
     27 C          64.2359   90.4564   13.8912 C.ar    1  UNL1        0.1059
     28 C          65.6125   90.9347   13.5361 C.ar    1  UNL1        0.0192
     29 C          66.4019   91.7455   14.5206 C.ar    1  UNL1        0.0127
     30 C          65.8148   92.0781   15.8602 C.ar    1  UNL1        0.0578
     31 CL         66.6042   92.8890   16.8447 Cl      1  UNL1       -0.0822
     32 C          64.4381   91.5998   16.2154 C.ar    1  UNL1        0.0127
     33 C          63.6486   90.7889   15.2309 C.ar    1  UNL1        0.0192
@<TRIPOS>BOND
     1     1     2    1
     2     2     3    2
     3     2     4    1
     4     4     5    1
     5     5     6    1
     6     6     7    1
     7     7     8    1
     8     8     9    1
     9     9    10    1
    10    10    24    1
    11    24    25    2
    12    24    26    2
    13    24    27    1
    14    27    28   ar
    15    28    29   ar
    16    29    30   ar
    17    30    31    1
    18    30    32   ar
    19    32    33   ar
    20    10    11    1
    21    11    12   ar
    22    12    13    1
    23    12    14   ar
    24    14    15   ar
    25    15    16   ar
    26    16    17    1
    27    16    18   ar
    28    18    19    1
    29    19    20    1
    30    21    20    1
    31     6    22    1
    32    22    23    1
    33    23     2    1
    34    21     6    1
    35    21    10    1
    36    33    27   ar
    37    18    11   ar
@<TRIPOS>MOLECULE
*****
 33 37 0 0 0
SMALL
GASTEIGER

@<TRIPOS>ATOM
      1 C          59.6595   87.0566    9.2989 C.3     1  UNL1        0.1287
      2 P          60.5727   88.2265    9.5169 P.3     1  UNL1        0.3439
      3 O          59.8790   88.6677    8.2622 O.2     1  UNL1       -0.2577
      4 O          61.2449   89.5496    9.2992 O.3     1  UNL1       -0.2940
      5 C          62.2936   90.0252   10.2604 C.3     1  UNL1        0.1538
      6 C          62.6702   89.1777   11.4393 C.3     1  UNL1        0.0611
      7 C          63.0467   88.3303   12.6182 C.3     1  UNL1        0.0051
      8 C          64.0954   88.8059   13.5795 C.3     1  UNL1        0.0022
      9 C          64.7676   90.1290   13.3617 C.3     1  UNL1        0.0268
     10 C          64.3911   90.9765   12.1828 C.3     1  UNL1        0.1420
     11 C          65.0633   92.2997   11.9650 C.ar    1  UNL1        0.0616
     12 C          66.1121   92.7753   12.9262 C.ar    1  UNL1        0.1407
     13 F          66.7178   92.2042   14.1740 F       1  UNL1       -0.2043
     14 C          66.7843   94.0984   12.7085 C.ar    1  UNL1        0.0319
     15 C          66.4078   94.9460   11.5295 C.ar    1  UNL1        0.0351
     16 C          65.3590   94.4704   10.5683 C.ar    1  UNL1        0.1737
     17 F          64.9825   95.3179    9.3894 F       1  UNL1       -0.2010
     18 C          64.6868   93.1472   10.7861 C.ar    1  UNL1        0.1654
     19 O          63.6381   92.6715    9.8249 O.3     1  UNL1       -0.4733
     20 C          62.9659   91.3484   10.0426 C.3     1  UNL1        0.2075
     21 C          63.3424   90.5009   11.2216 C.3     1  UNL1        0.0732
     22 C          61.9979   87.8546   11.6570 C.3     1  UNL1        0.1538
     23 O          60.9492   87.3790   10.6958 O.3     1  UNL1       -0.2940
     24 S          65.4399   91.4521   13.1440 S.O2    1  UNL1        0.0093
     25 O          66.2042   91.3816   12.9290 O.2     1  UNL1       -0.1684
     26 O          64.6542   91.9584   14.3172 O.2     1  UNL1       -0.1684
     27 C          66.4886   91.9277   14.1052 C.ar    1  UNL1        0.1059
     28 C          67.9410   91.7178   13.7948 C.ar    1  UNL1        0.0192
     29 C          68.9897   92.1934   14.7560 C.ar    1  UNL1        0.0127
     30 C          68.5861   92.8790   16.0276 C.ar    1  UNL1        0.0578
     31 CL         69.6348   93.3546   16.9889 Cl      1  UNL1       -0.0822
     32 C          67.1336   93.0889   16.3381 C.ar    1  UNL1        0.0127
     33 C          66.0849   92.6133   15.3769 C.ar    1  UNL1        0.0192
@<TRIPOS>BOND
     1     1     2    1
     2     2     3    2
     3     2     4    1
     4     4     5    1
     5     5     6    1
     6     6     7    1
     7     7     8    1
     8     8     9    1
     9     9    10    1
    10    10    24    1
    11    24    25    2
    12    24    26    2
    13    24    27    1
    14    27    28   ar
    15    28    29   ar
    16    29    30   ar
    17    30    31    1
    18    30    32   ar
    19    32    33   ar
    20    10    11    1
    21    11    12   ar
    22    12    13    1
    23    12    14   ar
    24    14    15   ar
    25    15    16   ar
    26    16    17    1
    27    16    18   ar
    28    18    19    1
    29    19    20    1
    30    21    20    1
    31     6    22    1
    32    22    23    1
    33    23     2    1
    34    21     6    1
    35    21    10    1
    36    33    27   ar
    37    18    11   ar
@<TRIPOS>MOLECULE
*****
 33 37 0 0 0
SMALL
GASTEIGER

@<TRIPOS>ATOM
      1 C          59.6130   90.8373    5.7111 C.3     1  UNL1        0.1287
      2 P          59.5652   91.6400    4.4448 P.3     1  UNL1        0.3439
      3 O          58.1119   91.6525    4.8161 O.2     1  UNL1       -0.2577
      4 O          59.0127   92.4470    3.3075 O.3     1  UNL1       -0.2940
      5 C          59.9300   92.9628    2.2386 C.3     1  UNL1        0.1538
      6 C          61.3998   92.6716    2.3071 C.3     1  UNL1        0.0611
      7 C          62.8697   92.3805    2.3755 C.3     1  UNL1        0.0051
      8 C          63.7870   92.8963    1.3067 C.3     1  UNL1        0.0022
      9 C          63.2345   93.7033    0.1694 C.3     1  UNL1        0.0268
     10 C          61.7647   93.9944    0.1009 C.3     1  UNL1        0.1420
     11 C          61.2121   94.8015   -1.0364 C.ar    1  UNL1        0.0616
     12 C          62.1294   95.3173   -2.1052 C.ar    1  UNL1        0.1407
     13 F          63.6066   95.2195   -2.3470 F       1  UNL1       -0.2043
     14 C          61.5769   96.1243   -3.2425 C.ar    1  UNL1        0.0319
     15 C          60.1070   96.4155   -3.3110 C.ar    1  UNL1        0.0351
     16 C          59.1897   95.8997   -2.2421 C.ar    1  UNL1        0.1737
     17 F          57.7198   96.1909   -2.3106 F       1  UNL1       -0.2010
     18 C          59.7423   95.0927   -1.1048 C.ar    1  UNL1        0.1654
     19 O          58.8249   94.5769   -0.0360 O.3     1  UNL1       -0.4733
     20 C          59.3774   93.7699    1.1013 C.3     1  UNL1        0.2075
     21 C          60.8473   93.4786    1.1698 C.3     1  UNL1        0.0732
     22 C          61.9523   91.8646    3.4444 C.3     1  UNL1        0.1538
     23 O          61.0350   91.3488    4.5132 O.3     1  UNL1       -0.2940
     24 S          62.6820   94.5102   -0.9679 S.O2    1  UNL1        0.0093
     25 O          63.0066   95.2312   -0.8667 O.2     1  UNL1       -0.1684
     26 O          62.7062   93.4103   -1.9874 O.2     1  UNL1       -0.1684
     27 C          63.5993   95.0261   -2.0367 C.ar    1  UNL1        0.1059
     28 C          63.8161   94.2282   -3.2883 C.ar    1  UNL1        0.0192
     29 C          64.7334   94.7440   -4.3572 C.ar    1  UNL1        0.0127
     30 C          65.4340   96.0577   -4.1744 C.ar    1  UNL1        0.0578
     31 CL         66.3514   96.5735   -5.2433 Cl      1  UNL1       -0.0822
     32 C          65.2173   96.8556   -2.9228 C.ar    1  UNL1        0.0127
     33 C          64.3000   96.3398   -1.8540 C.ar    1  UNL1        0.0192
@<TRIPOS>BOND
     1     1     2    1
     2     2     3    2
     3     2     4    1
     4     4     5    1
     5     5     6    1
     6     6     7    1
     7     7     8    1
     8     8     9    1
     9     9    10    1
    10    10    24    1
    11    24    25    2
    12    24    26    2
    13    24    27    1
    14    27    28   ar
    15    28    29   ar
    16    29    30   ar
    17    30    31    1
    18    30    32   ar
    19    32    33   ar
    20    10    11    1
    21    11    12   ar
    22    12    13    1
    23    12    14   ar
    24    14    15   ar
    25    15    16   ar
    26    16    17    1
    27    16    18   ar
    28    18    19    1
    29    19    20    1
    30    21    20    1
    31     6    22    1
    32    22    23    1
    33    23     2    1
    34    21     6    1
    35    21    10    1
    36    33    27   ar
    37    18    11   ar
@<TRIPOS>MOLECULE
*****
 33 37 0 0 0
SMALL
GASTEIGER

@<TRIPOS>ATOM
      1 C          60.1457   92.1382    4.4920 C.3     1  UNL1        0.1287
      2 P          60.1004   92.4831    3.0329 P.3     1  UNL1        0.3439
      3 O          58.6329   92.3563    3.3163 O.2     1  UNL1       -0.2577
      4 O          59.5455   92.7839    1.6722 O.3     1  UNL1       -0.2940
      5 C          60.4738   93.0918    0.5349 C.3     1  UNL1        0.1538
      6 C          61.9571   93.0988    0.7583 C.3     1  UNL1        0.0611
      7 C          63.4403   93.1058    0.9816 C.3     1  UNL1        0.0051
      8 C          64.3686   93.4137   -0.1557 C.3     1  UNL1        0.0022
      9 C          63.8137   93.7145   -1.5163 C.3     1  UNL1        0.0268
     10 C          62.3304   93.7075   -1.7397 C.3     1  UNL1        0.1420
     11 C          61.7754   94.0084   -3.1005 C.ar    1  UNL1        0.0616
     12 C          62.7037   94.3163   -4.2378 C.ar    1  UNL1        0.1407
     13 F          64.1951   94.4081   -4.3699 F       1  UNL1       -0.2043
     14 C          62.1488   94.6171   -5.5984 C.ar    1  UNL1        0.0319
     15 C          60.6655   94.6101   -5.8219 C.ar    1  UNL1        0.0351
     16 C          59.7372   94.3022   -4.6846 C.ar    1  UNL1        0.1737
     17 F          58.2540   94.2952   -4.9079 F       1  UNL1       -0.2010
     18 C          60.2922   94.0014   -3.3238 C.ar    1  UNL1        0.1654
     19 O          59.3639   93.6935   -2.1865 O.3     1  UNL1       -0.4733
     20 C          59.9188   93.3926   -0.8258 C.3     1  UNL1        0.2075
     21 C          61.4021   93.3997   -0.6024 C.3     1  UNL1        0.0732
     22 C          62.5120   92.7980    2.1190 C.3     1  UNL1        0.1538
     23 O          61.5837   92.4901    3.2563 O.3     1  UNL1       -0.2940
     24 S          63.2587   94.0154   -2.8770 S.O2    1  UNL1        0.0093
     25 O          63.4314   94.7798   -3.0229 O.2     1  UNL1       -0.1684
     26 O          63.6054   92.6680   -3.4376 O.2     1  UNL1       -0.1684
     27 C          64.1870   94.3233   -4.0143 C.ar    1  UNL1        0.1059
     28 C          64.6485   93.2239   -4.9245 C.ar    1  UNL1        0.0192
     29 C          65.5768   93.5318   -6.0618 C.ar    1  UNL1        0.0127
     30 C          66.0436   94.9390   -6.2889 C.ar    1  UNL1        0.0578
     31 CL         66.9720   95.2469   -7.4263 Cl      1  UNL1       -0.0822
     32 C          65.5822   96.0385   -5.3788 C.ar    1  UNL1        0.0127
     33 C          64.6539   95.7306   -4.2415 C.ar    1  UNL1        0.0192
@<TRIPOS>BOND
     1     1     2    1
     2     2     3    2
     3     2     4    1
     4     4     5    1
     5     5     6    1
     6     6     7    1
     7     7     8    1
     8     8     9    1
     9     9    10    1
    10    10    24    1
    11    24    25    2
    12    24    26    2
    13    24    27    1
    14    27    28   ar
    15    28    29   ar
    16    29    30   ar
    17    30    31    1
    18    30    32   ar
    19    32    33   ar
    20    10    11    1
    21    11    12   ar
    22    12    13    1
    23    12    14   ar
    24    14    15   ar
    25    15    16   ar
    26    16    17    1
    27    16    18   ar
    28    18    19    1
    29    19    20    1
    30    21    20    1
    31     6    22    1
    32    22    23    1
    33    23     2    1
    34    21     6    1
    35    21    10    1
    36    33    27   ar
    37    18    11   ar
@<TRIPOS>MOLECULE
*****
 33 37 0 0 0
SMALL
GASTEIGER

@<TRIPOS>ATOM
      1 C          64.4860   92.5703   15.9859 C.3     1  UNL1        0.1287
      2 P          64.2552   91.1803   15.4713 P.3     1  UNL1        0.3439
      3 O          64.6586   90.8718   16.8827 O.2     1  UNL1       -0.2577
      4 O          64.1644   89.6833   15.4469 O.3     1  UNL1       -0.2940
      5 C          63.7504   88.9774   14.1898 C.3     1  UNL1        0.1538
      6 C          63.4272   89.7685   12.9571 C.3     1  UNL1        0.0611
      7 C          63.1039   90.5596   11.7244 C.3     1  UNL1        0.0051
      8 C          62.6899   89.8537   10.4673 C.3     1  UNL1        0.0022
      9 C          62.5991   88.3567   10.4429 C.3     1  UNL1        0.0268
     10 C          62.9224   87.5656   11.6755 C.3     1  UNL1        0.1420
     11 C          62.8316   86.0685   11.6512 C.ar    1  UNL1        0.0616
     12 C          62.4176   85.3626   10.3941 C.ar    1  UNL1        0.1407
     13 F          62.0335   85.8226    9.0190 F       1  UNL1       -0.2043
     14 C          62.3269   83.8656   10.3697 C.ar    1  UNL1        0.0319
     15 C          62.6501   83.0744   11.6024 C.ar    1  UNL1        0.0351
     16 C          63.0641   83.7803   12.8595 C.ar    1  UNL1        0.1737
     17 F          63.3874   82.9891   14.0922 F       1  UNL1       -0.2010
     18 C          63.1549   85.2774   12.8839 C.ar    1  UNL1        0.1654
     19 O          63.5689   85.9833   14.1410 O.3     1  UNL1       -0.4733
     20 C          63.6596   87.4803   14.1654 C.3     1  UNL1        0.2075
     21 C          63.3364   88.2715   12.9327 C.3     1  UNL1        0.0732
     22 C          63.5179   91.2655   12.9815 C.3     1  UNL1        0.1538
     23 O          63.9319   91.9714   14.2386 O.3     1  UNL1       -0.2940
     24 S          62.5084   86.8597   10.4184 S.O2    1  UNL1        0.0093
     25 O          63.0259   86.8399    9.8125 O.2     1  UNL1       -0.1684
     26 O          61.1243   86.3655   10.7186 O.2     1  UNL1       -0.1684
     27 C          62.0944   86.1538    9.1613 C.ar    1  UNL1        0.1059
     28 C          60.6547   86.1542    8.7403 C.ar    1  UNL1        0.0192
     29 C          60.2407   85.4483    7.4832 C.ar    1  UNL1        0.0127
     30 C          61.2664   84.7420    6.6471 C.ar    1  UNL1        0.0578
     31 CL         60.8524   84.0361    5.3900 Cl      1  UNL1       -0.0822
     32 C          62.7061   84.7416    7.0681 C.ar    1  UNL1        0.0127
     33 C          63.1201   85.4475    8.3252 C.ar    1  UNL1        0.0192
@<TRIPOS>BOND
     1     1     2    1
     2     2     3    2
     3     2     4    1
     4     4     5    1
     5     5     6    1
     6     6     7    1
     7     7     8    1
     8     8     9    1
     9     9    10    1
    10    10    24    1
    11    24    25    2
    12    24    26    2
    13    24    27    1
    14    27    28   ar
    15    28    29   ar
    16    29    30   ar
    17    30    31    1
    18    30    32   ar
    19    32    33   ar
    20    10    11    1
    21    11    12   ar
    22    12    13    1
    23    12    14   ar
    24    14    15   ar
    25    15    16   ar
    26    16    17    1
    27    16    18   ar
    28    18    19    1
    29    19    20    1
    30    21    20    1
    31     6    22    1
    32    22    23    1
    33    23     2    1
    34    21     6    1
    35    21    10    1
    36    33    27   ar
    37    18    11   ar
@<TRIPOS>MOLECULE
*****
 33 37 0 0 0
SMALL
GASTEIGER

@<TRIPOS>ATOM
      1 C          53.2570   96.2245   -6.2867 C.3     1  UNL1        0.1287
      2 P          54.6849   95.8614   -6.0053 P.3     1  UNL1        0.3439
      3 O          54.7672   96.1172   -7.4810 O.2     1  UNL1       -0.2577
      4 O          56.1414   95.5872   -6.2363 O.3     1  UNL1       -0.2940
      5 C          57.0197   95.1833   -5.0894 C.3     1  UNL1        0.1538
      6 C          56.4416   95.0537   -3.7114 C.3     1  UNL1        0.0611
      7 C          55.8634   94.9240   -2.3334 C.3     1  UNL1        0.0051
      8 C          56.7418   94.5201   -1.1865 C.3     1  UNL1        0.0022
      9 C          58.1982   94.2459   -1.4176 C.3     1  UNL1        0.0268
     10 C          58.7764   94.3755   -2.7956 C.3     1  UNL1        0.1420
     11 C          60.2329   94.1013   -3.0267 C.ar    1  UNL1        0.0616
     12 C          61.1113   93.6974   -1.8798 C.ar    1  UNL1        0.1407
     13 F          60.8764   93.4769   -0.4148 F       1  UNL1       -0.2043
     14 C          62.5677   93.4232   -2.1109 C.ar    1  UNL1        0.0319
     15 C          63.1460   93.5528   -3.4889 C.ar    1  UNL1        0.0351
     16 C          62.2676   93.9567   -4.6358 C.ar    1  UNL1        0.1737
     17 F          62.8458   94.0864   -6.0138 F       1  UNL1       -0.2010
     18 C          60.8111   94.2310   -4.4047 C.ar    1  UNL1        0.1654
     19 O          59.9328   94.6349   -5.5516 O.3     1  UNL1       -0.4733
     20 C          58.4763   94.9091   -5.3205 C.3     1  UNL1        0.2075
     21 C          57.8981   94.7794   -3.9425 C.3     1  UNL1        0.0732
     22 C          54.9851   95.3279   -3.4804 C.3     1  UNL1        0.1538
     23 O          54.1068   95.7318   -4.6273 O.3     1  UNL1       -0.2940
     24 S          59.6547   93.9716   -1.6487 S.O2    1  UNL1        0.0093
     25 O          60.1040   94.5335   -1.3053 O.2     1  UNL1       -0.1684
     26 O          59.3914   92.5036   -1.4893 O.2     1  UNL1       -0.1684
     27 C          60.5330   93.5677   -0.5017 C.ar    1  UNL1        0.1059
     28 C          60.6945   92.1173   -0.1553 C.ar    1  UNL1        0.0192
     29 C          61.5729   91.7134    0.9916 C.ar    1  UNL1        0.0127
     30 C          62.2897   92.7599    1.7921 C.ar    1  UNL1        0.0578
     31 CL         63.1680   92.3560    2.9390 Cl      1  UNL1       -0.0822
     32 C          62.1282   94.2105    1.4457 C.ar    1  UNL1        0.0127
     33 C          61.2499   94.6144    0.2988 C.ar    1  UNL1        0.0192
@<TRIPOS>BOND
     1     1     2    1
     2     2     3    2
     3     2     4    1
     4     4     5    1
     5     5     6    1
     6     6     7    1
     7     7     8    1
     8     8     9    1
     9     9    10    1
    10    10    24    1
    11    24    25    2
    12    24    26    2
    13    24    27    1
    14    27    28   ar
    15    28    29   ar
    16    29    30   ar
    17    30    31    1
    18    30    32   ar
    19    32    33   ar
    20    10    11    1
    21    11    12   ar
    22    12    13    1
    23    12    14   ar
    24    14    15   ar
    25    15    16   ar
    26    16    17    1
    27    16    18   ar
    28    18    19    1
    29    19    20    1
    30    21    20    1
    31     6    22    1
    32    22    23    1
    33    23     2    1
    34    21     6    1
    35    21    10    1
    36    33    27   ar
    37    18    11   ar
