@<TRIPOS>MOLECULE
*****
 37 40 0 0 0
SMALL
GASTEIGER

@<TRIPOS>ATOM
      1 N          63.0904   90.9561   11.6777 N.am    1  UNL1       -0.2438
      2 C          63.6348   91.5394   10.4075 C.3     1  UNL1        0.1009
      3 C          64.8485   92.4199   10.4464 C.3     1  UNL1        0.0662
      4 C          65.5178   92.7172   11.7554 C.3     1  UNL1        0.1600
      5 O          64.9735   92.1339   13.0257 O.3     1  UNL1       -0.4374
      6 C          63.7598   91.2533   12.9868 C.2     1  UNL1        0.4051
      7 O          63.2154   90.6700   14.2569 O.2     1  UNL1       -0.2262
      8 C          66.4013   93.4980   10.8280 C.ar    1  UNL1        0.0138
      9 C          67.3340   92.7795    9.8986 C.ar    1  UNL1       -0.0010
     10 C          68.2175   93.5602    8.9712 C.ar    1  UNL1       -0.0002
     11 C          68.1680   95.0594    8.9732 C.ar    1  UNL1       -0.0000
     12 C          67.2352   95.7779    9.9025 C.ar    1  UNL1       -0.0002
     13 C          66.3518   94.9971   10.8300 C.ar    1  UNL1       -0.0010
     14 C          60.5123   90.6843   11.5066 C.3     1  UNL1        0.0265
     15 C          61.8768   90.0755   11.6388 C.3     1  UNL1        0.1011
     16 C          62.0276   88.5859   11.7321 C.ar    1  UNL1       -0.0042
     17 C          61.0800   87.6884   10.9930 C.ar    1  UNL1       -0.0027
     18 C          61.2308   86.1989   11.0864 C.ar    1  UNL1       -0.0003
     19 C          62.3292   85.6071   11.9189 C.ar    1  UNL1        0.0002
     20 C          63.2768   86.5046   12.6581 C.ar    1  UNL1       -0.0003
     21 C          63.1260   87.9941   12.5647 C.ar    1  UNL1       -0.0027
     22 C          62.4800   84.1175   12.0123 C.ar    1  UNL1        0.0062
     23 C          62.9644   83.3370   10.8265 C.ar    1  UNL1        0.0191
     24 C          63.1152   81.8474   10.9199 C.ar    1  UNL1        0.0833
     25 N          62.7816   81.1386   12.1990 N.ar    1  UNL1       -0.2393
     26 C          62.2972   81.9192   13.3848 C.ar    1  UNL1        0.2649
     27 O          61.9636   81.2103   14.6640 O.2     1  UNL1       -0.2668
     28 C          62.1464   83.4087   13.2914 C.ar    1  UNL1        0.0609
     29 C          62.9324   79.6491   12.2925 C.3     1  UNL1        0.4163
     30 F          62.8223   78.8053   11.0573 F       1  UNL1       -0.1724
     31 F          63.1932   79.0035   13.6210 F       1  UNL1       -0.1724
     32 C          66.4940   93.2857   12.7424 C.3     1  UNL1        0.0714
     33 C          67.0814   92.4075   13.8071 C.3     1  UNL1        0.0922
     34 C          66.3192   93.1658   14.8531 C.3     1  UNL1        0.0294
     35 C          67.8435   91.6492   12.7612 C.3     1  UNL1        0.0294
     36 O          67.6687   91.5293   14.8719 O.3     1  UNL1       -0.3866
     37 H          67.3306   91.8024   15.7391 H       1  UNL1        0.2102
@<TRIPOS>BOND
     1    15    14    1
     2    15    16    1
     3    16    17   ar
     4    17    18   ar
     5    18    19   ar
     6    19    22    1
     7    22    23   ar
     8    23    24   ar
     9    24    25   ar
    10    25    29    1
    11    29    30    1
    12    29    31    1
    13    25    26   ar
    14    26    27    2
    15    26    28   ar
    16    19    20   ar
    17    20    21   ar
    18    15     1    1
    19     1     2    1
    20     2     3    1
    21     3     4    1
    22     4    32    1
    23    32    33    1
    24    33    34    1
    25    33    35    1
    26    33    36    1
    27     4     8    1
    28     8     9   ar
    29     9    10   ar
    30    10    11   ar
    31    11    12   ar
    32    12    13   ar
    33     4     5    1
    34     5     6    1
    35     6     7    2
    36    21    16   ar
    37     6     1   am
    38    28    22   ar
    39    13     8   ar
    40    36    37    1
@<TRIPOS>MOLECULE
*****
 37 40 0 0 0
SMALL
GASTEIGER

@<TRIPOS>ATOM
      1 N          63.5288   90.6670   11.9420 N.am    1  UNL1       -0.2438
      2 C          64.2126   90.5167   13.2686 C.3     1  UNL1        0.1009
      3 C          65.4257   91.3405   13.5847 C.3     1  UNL1        0.0662
      4 C          65.9549   92.3145   12.5743 C.3     1  UNL1        0.1600
      5 O          65.2711   92.4649   11.2476 O.3     1  UNL1       -0.4374
      6 C          64.0581   91.6412   10.9315 C.2     1  UNL1        0.4051
      7 O          63.3743   91.7915    9.6050 O.2     1  UNL1       -0.2262
      8 C          66.9415   92.5283   13.6838 C.ar    1  UNL1        0.0138
      9 C          66.5312   93.2740   14.9189 C.ar    1  UNL1       -0.0010
     10 C          67.5179   93.4877   16.0284 C.ar    1  UNL1       -0.0002
     11 C          68.9147   92.9558   15.9027 C.ar    1  UNL1       -0.0000
     12 C          69.3250   92.2101   14.6675 C.ar    1  UNL1       -0.0002
     13 C          68.3384   91.9964   13.5580 C.ar    1  UNL1       -0.0010
     14 C          61.0378   90.5154   11.2196 C.3     1  UNL1        0.0265
     15 C          62.3158   89.8433   11.6259 C.3     1  UNL1        0.1011
     16 C          62.3807   88.3473   11.7161 C.ar    1  UNL1       -0.0042
     17 C          63.3080   87.6947   12.6980 C.ar    1  UNL1       -0.0027
     18 C          63.3729   86.1989   12.7881 C.ar    1  UNL1       -0.0003
     19 C          62.5105   85.3556   11.8964 C.ar    1  UNL1        0.0002
     20 C          61.5832   86.0083   10.9145 C.ar    1  UNL1       -0.0003
     21 C          61.5183   87.5041   10.8243 C.ar    1  UNL1       -0.0027
     22 C          62.5754   83.8597   11.9866 C.ar    1  UNL1        0.0062
     23 C          63.0641   83.0583   10.8166 C.ar    1  UNL1        0.0191
     24 C          63.1290   81.5624   10.9068 C.ar    1  UNL1        0.0833
     25 N          62.7053   80.8679   12.1670 N.ar    1  UNL1       -0.2393
     26 C          62.2166   81.6694   13.3370 C.ar    1  UNL1        0.2649
     27 O          61.7929   80.9750   14.5973 O.2     1  UNL1       -0.2668
     28 C          62.1517   83.1653   13.2468 C.ar    1  UNL1        0.0609
     29 C          62.7702   79.3721   12.2572 C.3     1  UNL1        0.4163
     30 F          62.8520   78.7045   13.5979 F       1  UNL1       -0.1724
     31 F          62.7533   78.5439   11.0067 F       1  UNL1       -0.1724
     32 C          66.8268   93.3629   11.9491 C.3     1  UNL1        0.0714
     33 C          66.6418   93.7297   10.5065 C.3     1  UNL1        0.0922
     34 C          67.5050   92.5717   10.1014 C.3     1  UNL1        0.0294
     35 C          65.7787   94.8876   10.9116 C.3     1  UNL1        0.0294
     36 O          66.4568   94.0964    9.0639 O.3     1  UNL1       -0.3866
     37 H          66.9432   93.4694    8.5059 H       1  UNL1        0.2102
@<TRIPOS>BOND
     1    15    14    1
     2    15    16    1
     3    16    17   ar
     4    17    18   ar
     5    18    19   ar
     6    19    22    1
     7    22    23   ar
     8    23    24   ar
     9    24    25   ar
    10    25    29    1
    11    29    30    1
    12    29    31    1
    13    25    26   ar
    14    26    27    2
    15    26    28   ar
    16    19    20   ar
    17    20    21   ar
    18    15     1    1
    19     1     2    1
    20     2     3    1
    21     3     4    1
    22     4    32    1
    23    32    33    1
    24    33    34    1
    25    33    35    1
    26    33    36    1
    27     4     8    1
    28     8     9   ar
    29     9    10   ar
    30    10    11   ar
    31    11    12   ar
    32    12    13   ar
    33     4     5    1
    34     5     6    1
    35     6     7    2
    36    21    16   ar
    37     6     1   am
    38    28    22   ar
    39    13     8   ar
    40    36    37    1
@<TRIPOS>MOLECULE
*****
 37 40 0 0 0
SMALL
GASTEIGER

@<TRIPOS>ATOM
      1 N          64.3122   90.4945   13.4159 N.am    1  UNL1       -0.2438
      2 C          64.2169   91.0075   12.0096 C.3     1  UNL1        0.1009
      3 C          65.2486   91.9635   11.4884 C.3     1  UNL1        0.0662
      4 C          66.3757   92.4065   12.3735 C.3     1  UNL1        0.1600
      5 O          66.4711   91.8935   13.7799 O.3     1  UNL1       -0.4374
      6 C          65.4393   90.9375   14.3011 C.2     1  UNL1        0.4051
      7 O          65.5347   90.4245   15.7074 O.2     1  UNL1       -0.2262
      8 C          66.7124   93.1648   11.1239 C.ar    1  UNL1        0.0138
      9 C          66.1575   94.5419   10.9098 C.ar    1  UNL1       -0.0010
     10 C          66.4942   95.3002    9.6601 C.ar    1  UNL1       -0.0002
     11 C          67.3857   94.6814    8.6246 C.ar    1  UNL1       -0.0000
     12 C          67.9406   93.3043    8.8387 C.ar    1  UNL1       -0.0002
     13 C          67.6039   92.5460   10.0884 C.ar    1  UNL1       -0.0010
     14 C          62.2763   89.9987   14.9519 C.3     1  UNL1        0.0265
     15 C          63.2805   89.5386   13.9371 C.3     1  UNL1        0.1011
     16 C          63.2530   88.1223   13.4435 C.ar    1  UNL1       -0.0042
     17 C          62.6017   87.7977   12.1319 C.ar    1  UNL1       -0.0027
     18 C          62.5743   86.3816   11.6383 C.ar    1  UNL1       -0.0003
     19 C          63.1981   85.2900   12.4564 C.ar    1  UNL1        0.0002
     20 C          63.8493   85.6145   13.7681 C.ar    1  UNL1       -0.0003
     21 C          63.8768   87.0307   14.2616 C.ar    1  UNL1       -0.0027
     22 C          63.1705   83.8737   11.9628 C.ar    1  UNL1        0.0062
     23 C          63.7187   83.5413   10.6067 C.ar    1  UNL1        0.0191
     24 C          63.6912   82.1251   10.1131 C.ar    1  UNL1        0.0833
     25 N          63.1155   81.0413   10.9756 N.ar    1  UNL1       -0.2393
     26 C          62.5673   81.3737   12.3318 C.ar    1  UNL1        0.2649
     27 O          61.9917   80.2899   13.1943 O.2     1  UNL1       -0.2668
     28 C          62.5949   82.7899   12.8253 C.ar    1  UNL1        0.0609
     29 C          63.0880   79.6251   10.4821 C.3     1  UNL1        0.4163
     30 F          63.4326   79.3218    9.0541 F       1  UNL1       -0.1724
     31 F          62.7159   78.5123   11.4165 F       1  UNL1       -0.1724
     32 C          67.6197   93.1129   12.8247 C.3     1  UNL1        0.0714
     33 C          68.3807   92.6060   14.0137 C.3     1  UNL1        0.0922
     34 C          67.7026   93.6242   14.8818 C.3     1  UNL1        0.0294
     35 C          69.0588   91.5878   13.1457 C.3     1  UNL1        0.0294
     36 O          69.1416   92.0991   15.2028 O.3     1  UNL1       -0.3866
     37 H          68.8922   92.6106   15.9883 H       1  UNL1        0.2102
@<TRIPOS>BOND
     1    15    14    1
     2    15    16    1
     3    16    17   ar
     4    17    18   ar
     5    18    19   ar
     6    19    22    1
     7    22    23   ar
     8    23    24   ar
     9    24    25   ar
    10    25    29    1
    11    29    30    1
    12    29    31    1
    13    25    26   ar
    14    26    27    2
    15    26    28   ar
    16    19    20   ar
    17    20    21   ar
    18    15     1    1
    19     1     2    1
    20     2     3    1
    21     3     4    1
    22     4    32    1
    23    32    33    1
    24    33    34    1
    25    33    35    1
    26    33    36    1
    27     4     8    1
    28     8     9   ar
    29     9    10   ar
    30    10    11   ar
    31    11    12   ar
    32    12    13   ar
    33     4     5    1
    34     5     6    1
    35     6     7    2
    36    21    16   ar
    37     6     1   am
    38    28    22   ar
    39    13     8   ar
    40    36    37    1
