@<TRIPOS>MOLECULE
*****
 34 38 0 0 0
SMALL
GASTEIGER

@<TRIPOS>ATOM
      1 O          62.3746   90.8335   12.1860 O.2     1  UNL1       -0.2728
      2 C          62.8801   89.4407   12.4195 C.2     1  UNL1        0.2488
      3 N          62.3289   88.2986   11.6182 N.am    1  UNL1       -0.2779
      4 C          61.2723   88.5494   10.5835 C.3     1  UNL1        0.0935
      5 C          60.7212   87.4074    9.7823 C.3     1  UNL1        0.0219
      6 C          61.2267   86.0146   10.0158 C.3     1  UNL1        0.0078
      7 C          62.2833   85.7638   11.0505 C.3     1  UNL1        0.0419
      8 C          62.8344   86.9058   11.8517 C.3     1  UNL1        0.0953
      9 C          62.7888   84.3710   11.2839 C.ar    1  UNL1       -0.0209
     10 C          64.0707   83.9219   10.6477 C.ar    1  UNL1       -0.0042
     11 C          64.5762   82.5290   10.8812 C.ar    1  UNL1       -0.0003
     12 C          63.7997   81.5853   11.7509 C.ar    1  UNL1       -0.0000
     13 C          62.5178   82.0344   12.3871 C.ar    1  UNL1       -0.0003
     14 C          62.0123   83.4272   12.1536 C.ar    1  UNL1       -0.0042
     15 C          63.9367   89.1899   13.4542 C.3     1  UNL1        0.1943
     16 N          64.0908   90.1309   14.6122 N.ar    1  UNL1       -0.2839
     17 C          63.0209   90.2120   15.6603 C.ar    1  UNL1        0.2806
     18 O          61.7967   89.3522   15.5505 O.2     1  UNL1       -0.2652
     19 C          63.1751   91.1530   16.8182 C.ar    1  UNL1        0.1595
     20 N          64.3992   92.0128   16.9280 N.ar    1  UNL1       -0.2374
     21 C          65.4692   91.9317   15.8799 C.ar    1  UNL1        0.0982
     22 C          66.6934   92.7916   15.9897 C.ar    1  UNL1        0.0328
     23 C          67.7634   92.7105   14.9416 C.ar    1  UNL1        0.0698
     24 CL         68.9875   93.5703   15.0514 Cl      1  UNL1       -0.0813
     25 C          67.6092   91.7695   13.7836 C.ar    1  UNL1        0.0697
     26 CL         68.6792   91.6884   12.7355 Cl      1  UNL1       -0.0813
     27 C          66.3850   90.9096   13.6738 C.ar    1  UNL1        0.0310
     28 C          65.3150   90.9908   14.7220 C.ar    1  UNL1        0.0815
     29 C          63.8910   86.6550   12.8865 C.3     1  UNL1        0.0924
     30 N          63.6960   85.5777   13.9118 N.3     1  UNL1       -0.2713
     31 C          64.6799   84.4990   14.2555 C.3     1  UNL1        0.0722
     32 C          64.0747   83.6446   15.3296 C.3     1  UNL1        0.0188
     33 C          62.7167   84.1953   15.6498 C.3     1  UNL1        0.0188
     34 C          62.4826   85.3900   14.7736 C.3     1  UNL1        0.0722
@<TRIPOS>BOND
     1     1     2    2
     2     2    15    1
     3    15    16    1
     4    16    17   ar
     5    17    18    2
     6    17    19   ar
     7    19    20   ar
     8    20    21   ar
     9    21    22   ar
    10    22    23   ar
    11    23    24    1
    12    23    25   ar
    13    25    26    1
    14    25    27   ar
    15    27    28   ar
    16     2     3   am
    17     3     4    1
    18     4     5    1
    19     5     6    1
    20     6     7    1
    21     7     9    1
    22     9    10   ar
    23    10    11   ar
    24    11    12   ar
    25    12    13   ar
    26    13    14   ar
    27     7     8    1
    28     8    29    1
    29    29    30    1
    30    30    31    1
    31    31    32    1
    32    32    33    1
    33    33    34    1
    34    28    16   ar
    35     8     3    1
    36    34    30    1
    37    28    21   ar
    38    14     9   ar
@<TRIPOS>MOLECULE
*****
 34 38 0 0 0
SMALL
GASTEIGER

@<TRIPOS>ATOM
      1 O          63.5265   91.1508   15.7109 O.2     1  UNL1       -0.2728
      2 C          63.6848   89.8447   14.9904 C.2     1  UNL1        0.2488
      3 N          63.4303   88.5545   15.7120 N.am    1  UNL1       -0.2779
      4 C          63.0176   88.5704   17.1540 C.3     1  UNL1        0.0935
      5 C          62.7632   87.2802   17.8755 C.3     1  UNL1        0.0219
      6 C          62.9215   85.9741   17.1551 C.3     1  UNL1        0.0078
      7 C          63.3342   85.9582   15.7131 C.3     1  UNL1        0.0419
      8 C          63.5886   87.2484   14.9916 C.3     1  UNL1        0.0953
      9 C          63.4925   84.6521   14.9926 C.ar    1  UNL1       -0.0209
     10 C          64.7977   84.3105   14.3372 C.ar    1  UNL1       -0.0042
     11 C          64.9560   83.0044   13.6168 C.ar    1  UNL1       -0.0003
     12 C          63.8091   82.0399   13.5517 C.ar    1  UNL1       -0.0000
     13 C          62.5038   82.3816   14.2071 C.ar    1  UNL1       -0.0003
     14 C          62.3455   83.6877   14.9276 C.ar    1  UNL1       -0.0042
     15 C          64.0975   89.8288   13.5484 C.3     1  UNL1        0.1943
     16 N          64.6179   91.0791   12.9034 N.ar    1  UNL1       -0.2839
     17 C          64.0975   91.5035   11.5621 C.ar    1  UNL1        0.2806
     18 O          63.0567   90.6777   10.8658 O.2     1  UNL1       -0.2652
     19 C          64.6179   92.7538   10.9171 C.ar    1  UNL1        0.1595
     20 N          65.6587   93.5796   11.6134 N.ar    1  UNL1       -0.2374
     21 C          66.1791   93.1552   12.9547 C.ar    1  UNL1        0.0982
     22 C          67.2198   93.9810   13.6510 C.ar    1  UNL1        0.0328
     23 C          67.7402   93.5566   14.9922 C.ar    1  UNL1        0.0698
     24 CL         68.7810   94.3824   15.6885 Cl      1  UNL1       -0.0813
     25 C          67.2198   92.3063   15.6373 C.ar    1  UNL1        0.0697
     26 CL         67.7402   91.8819   16.9785 Cl      1  UNL1       -0.0813
     27 C          66.1790   91.4805   14.9410 C.ar    1  UNL1        0.0310
     28 C          65.6587   91.9050   13.5997 C.ar    1  UNL1        0.0815
     29 C          64.0014   87.2325   13.5495 C.3     1  UNL1        0.0924
     30 N          62.9988   86.8949   12.4861 N.3     1  UNL1       -0.2713
     31 C          62.0938   87.8658   11.7873 C.3     1  UNL1        0.0722
     32 C          61.2608   87.0980   10.8042 C.3     1  UNL1        0.0188
     33 C          61.6510   85.6525   10.8953 C.3     1  UNL1        0.0188
     34 C          62.7251   85.5270   11.9348 C.3     1  UNL1        0.0722
@<TRIPOS>BOND
     1     1     2    2
     2     2    15    1
     3    15    16    1
     4    16    17   ar
     5    17    18    2
     6    17    19   ar
     7    19    20   ar
     8    20    21   ar
     9    21    22   ar
    10    22    23   ar
    11    23    24    1
    12    23    25   ar
    13    25    26    1
    14    25    27   ar
    15    27    28   ar
    16     2     3   am
    17     3     4    1
    18     4     5    1
    19     5     6    1
    20     6     7    1
    21     7     9    1
    22     9    10   ar
    23    10    11   ar
    24    11    12   ar
    25    12    13   ar
    26    13    14   ar
    27     7     8    1
    28     8    29    1
    29    29    30    1
    30    30    31    1
    31    31    32    1
    32    32    33    1
    33    33    34    1
    34    28    16   ar
    35     8     3    1
    36    34    30    1
    37    28    21   ar
    38    14     9   ar
@<TRIPOS>MOLECULE
*****
 34 38 0 0 0
SMALL
GASTEIGER

@<TRIPOS>ATOM
      1 O          65.0130   87.2850   15.3984 O.2     1  UNL1       -0.2728
      2 C          64.2572   87.6648   14.1596 C.2     1  UNL1        0.2488
      3 N          63.6131   86.6025   13.3188 N.am    1  UNL1       -0.2779
      4 C          63.7249   85.1606   13.7167 C.3     1  UNL1        0.0935
      5 C          63.0808   84.0985   12.8759 C.3     1  UNL1        0.0219
      6 C          62.3250   84.4783   11.6372 C.3     1  UNL1        0.0078
      7 C          62.2132   85.9202   11.2393 C.3     1  UNL1        0.0419
      8 C          62.8572   86.9823   12.0801 C.3     1  UNL1        0.0953
      9 C          61.4573   86.2999   10.0005 C.ar    1  UNL1       -0.0209
     10 C          60.1441   87.0160   10.1132 C.ar    1  UNL1       -0.0042
     11 C          59.3883   87.3958    8.8744 C.ar    1  UNL1       -0.0003
     12 C          59.9456   87.0595    7.5231 C.ar    1  UNL1       -0.0000
     13 C          61.2588   86.3434    7.4104 C.ar    1  UNL1       -0.0003
     14 C          62.0146   85.9636    8.6492 C.ar    1  UNL1       -0.0042
     15 C          64.1454   89.1067   13.7617 C.3     1  UNL1        0.1943
     16 N          64.2409   90.1818   14.8034 N.ar    1  UNL1       -0.2839
     17 C          63.1219   90.3790   15.7825 C.ar    1  UNL1        0.2806
     18 O          61.9072   89.5011   15.7201 O.2     1  UNL1       -0.2652
     19 C          63.2175   91.4540   16.8242 C.ar    1  UNL1        0.1595
     20 N          64.4321   92.3319   16.8866 N.ar    1  UNL1       -0.2374
     21 C          65.5512   92.1348   15.9075 C.ar    1  UNL1        0.0982
     22 C          66.7658   93.0127   15.9700 C.ar    1  UNL1        0.0328
     23 C          67.8849   92.8155   14.9908 C.ar    1  UNL1        0.0698
     24 CL         69.0996   93.6934   15.0533 Cl      1  UNL1       -0.0813
     25 C          67.7893   91.7404   13.9491 C.ar    1  UNL1        0.0697
     26 CL         68.9084   91.5432   12.9700 Cl      1  UNL1       -0.0813
     27 C          66.5747   90.8625   13.8867 C.ar    1  UNL1        0.0310
     28 C          65.4556   91.0597   14.8659 C.ar    1  UNL1        0.0815
     29 C          62.7455   88.4243   11.6822 C.3     1  UNL1        0.0924
     30 N          61.4160   89.1167   11.7375 N.3     1  UNL1       -0.2713
     31 C          60.2944   88.7979   12.6812 C.3     1  UNL1        0.0722
     32 C          59.1599   89.7336   12.3857 C.3     1  UNL1        0.0188
     33 C          59.5802   90.6306   11.2594 C.3     1  UNL1        0.0188
     34 C          60.9745   90.2493   10.8587 C.3     1  UNL1        0.0722
@<TRIPOS>BOND
     1     1     2    2
     2     2    15    1
     3    15    16    1
     4    16    17   ar
     5    17    18    2
     6    17    19   ar
     7    19    20   ar
     8    20    21   ar
     9    21    22   ar
    10    22    23   ar
    11    23    24    1
    12    23    25   ar
    13    25    26    1
    14    25    27   ar
    15    27    28   ar
    16     2     3   am
    17     3     4    1
    18     4     5    1
    19     5     6    1
    20     6     7    1
    21     7     9    1
    22     9    10   ar
    23    10    11   ar
    24    11    12   ar
    25    12    13   ar
    26    13    14   ar
    27     7     8    1
    28     8    29    1
    29    29    30    1
    30    30    31    1
    31    31    32    1
    32    32    33    1
    33    33    34    1
    34    28    16   ar
    35     8     3    1
    36    34    30    1
    37    28    21   ar
    38    14     9   ar
@<TRIPOS>MOLECULE
*****
 34 38 0 0 0
SMALL
GASTEIGER

@<TRIPOS>ATOM
      1 O          64.6715   87.7552   15.0110 O.2     1  UNL1       -0.2728
      2 C          63.8853   87.9961   13.7564 C.2     1  UNL1        0.2488
      3 N          63.3764   86.8343   12.9555 N.am    1  UNL1       -0.2779
      4 C          63.6537   85.4317   13.4092 C.3     1  UNL1        0.0935
      5 C          63.1448   84.2700   12.6083 C.3     1  UNL1        0.0219
      6 C          62.3587   84.5109   11.3538 C.3     1  UNL1        0.0078
      7 C          62.0814   85.9134   10.9001 C.3     1  UNL1        0.0419
      8 C          62.5903   87.0751   11.7009 C.3     1  UNL1        0.0953
      9 C          61.2953   86.1543    9.6455 C.ar    1  UNL1       -0.0209
     10 C          61.7653   85.5768    8.3434 C.ar    1  UNL1       -0.0042
     11 C          60.9792   85.8176    7.0888 C.ar    1  UNL1       -0.0003
     12 C          59.7230   86.6361    7.1363 C.ar    1  UNL1       -0.0000
     13 C          59.2531   87.2136    8.4384 C.ar    1  UNL1       -0.0003
     14 C          60.0392   86.9727    9.6930 C.ar    1  UNL1       -0.0042
     15 C          63.6081   89.3986   13.3027 C.3     1  UNL1        0.1943
     16 N          64.2013   90.5585   14.0462 N.ar    1  UNL1       -0.2839
     17 C          64.0608   90.6446   15.5371 C.ar    1  UNL1        0.2806
     18 O          63.3271   89.5708   16.2846 O.2     1  UNL1       -0.2652
     19 C          64.6541   91.8045   16.2806 C.ar    1  UNL1        0.1595
     20 N          65.3878   92.8783   15.5331 N.ar    1  UNL1       -0.2374
     21 C          65.5283   92.7922   14.0422 C.ar    1  UNL1        0.0982
     22 C          66.2620   93.8659   13.2948 C.ar    1  UNL1        0.0328
     23 C          66.4025   93.7799   11.8039 C.ar    1  UNL1        0.0698
     24 CL         67.1362   94.8536   11.0564 Cl      1  UNL1       -0.0813
     25 C          65.8092   92.6199   11.0604 C.ar    1  UNL1        0.0697
     26 CL         65.9497   92.5339    9.5695 Cl      1  UNL1       -0.0813
     27 C          65.0755   91.5462   11.8078 C.ar    1  UNL1        0.0310
     28 C          64.9350   91.6323   13.2988 C.ar    1  UNL1        0.0815
     29 C          62.3131   88.4778   11.2472 C.3     1  UNL1        0.0924
     30 N          60.9926   89.1188   11.5563 N.3     1  UNL1       -0.2713
     31 C          60.4969   90.4246   11.0093 C.3     1  UNL1        0.0722
     32 C          59.1339   90.6794   11.5815 C.3     1  UNL1        0.0188
     33 C          58.7873   89.5311   12.4822 C.3     1  UNL1        0.0188
     34 C          59.9360   88.5666   12.4666 C.3     1  UNL1        0.0722
@<TRIPOS>BOND
     1     1     2    2
     2     2    15    1
     3    15    16    1
     4    16    17   ar
     5    17    18    2
     6    17    19   ar
     7    19    20   ar
     8    20    21   ar
     9    21    22   ar
    10    22    23   ar
    11    23    24    1
    12    23    25   ar
    13    25    26    1
    14    25    27   ar
    15    27    28   ar
    16     2     3   am
    17     3     4    1
    18     4     5    1
    19     5     6    1
    20     6     7    1
    21     7     9    1
    22     9    10   ar
    23    10    11   ar
    24    11    12   ar
    25    12    13   ar
    26    13    14   ar
    27     7     8    1
    28     8    29    1
    29    29    30    1
    30    30    31    1
    31    31    32    1
    32    32    33    1
    33    33    34    1
    34    28    16   ar
    35     8     3    1
    36    34    30    1
    37    28    21   ar
    38    14     9   ar
@<TRIPOS>MOLECULE
*****
 34 38 0 0 0
SMALL
GASTEIGER

@<TRIPOS>ATOM
      1 O          63.7830   90.1996   16.0403 O.2     1  UNL1       -0.2728
      2 C          63.9243   88.8806   15.3401 C.2     1  UNL1        0.2488
      3 N          63.4308   87.6258   15.9973 N.am    1  UNL1       -0.2779
      4 C          62.7960   87.6900   17.3548 C.3     1  UNL1        0.0935
      5 C          62.3025   86.4352   18.0120 C.3     1  UNL1        0.0219
      6 C          62.4439   85.1162   17.3117 C.3     1  UNL1        0.0078
      7 C          63.0787   85.0521   15.9543 C.3     1  UNL1        0.0419
      8 C          63.5722   86.3068   15.2971 C.3     1  UNL1        0.0953
      9 C          63.2201   83.7331   15.2540 C.ar    1  UNL1       -0.0209
     10 C          64.5813   83.1417   15.0362 C.ar    1  UNL1       -0.0042
     11 C          64.7227   81.8228   14.3359 C.ar    1  UNL1       -0.0003
     12 C          63.5029   81.0952   13.8534 C.ar    1  UNL1       -0.0000
     13 C          62.1418   81.6866   14.0712 C.ar    1  UNL1       -0.0003
     14 C          62.0004   83.0056   14.7715 C.ar    1  UNL1       -0.0042
     15 C          64.5592   88.8165   13.9826 C.3     1  UNL1        0.1943
     16 N          64.4034   89.9620   13.0268 N.ar    1  UNL1       -0.2839
     17 C          65.2789   91.1729   13.1583 C.ar    1  UNL1        0.2806
     18 O          66.3102   91.2382   14.2455 O.2     1  UNL1       -0.2652
     19 C          65.1231   92.3184   12.2025 C.ar    1  UNL1        0.1595
     20 N          64.0918   92.2530   11.1153 N.ar    1  UNL1       -0.2374
     21 C          63.2163   91.0422   10.9838 C.ar    1  UNL1        0.0982
     22 C          62.1849   90.9769    9.8966 C.ar    1  UNL1        0.0328
     23 C          61.3094   89.7660    9.7651 C.ar    1  UNL1        0.0698
     24 CL         60.2781   89.7007    8.6779 Cl      1  UNL1       -0.0813
     25 C          61.4652   88.6205   10.7209 C.ar    1  UNL1        0.0697
     26 CL         60.5897   87.4096   10.5894 Cl      1  UNL1       -0.0813
     27 C          62.4966   88.6858   11.8081 C.ar    1  UNL1        0.0310
     28 C          63.3721   89.8967   11.9396 C.ar    1  UNL1        0.0815
     29 C          64.2071   86.2427   13.9395 C.3     1  UNL1        0.0924
     30 N          63.6076   85.3770   12.8713 N.3     1  UNL1       -0.2713
     31 C          62.1870   85.4244   12.3921 C.3     1  UNL1        0.0722
     32 C          62.0247   84.3886   11.3194 C.3     1  UNL1        0.0188
     33 C          63.3451   83.7010   11.1355 C.3     1  UNL1        0.0188
     34 C          64.3233   84.3119   12.0946 C.3     1  UNL1        0.0722
@<TRIPOS>BOND
     1     1     2    2
     2     2    15    1
     3    15    16    1
     4    16    17   ar
     5    17    18    2
     6    17    19   ar
     7    19    20   ar
     8    20    21   ar
     9    21    22   ar
    10    22    23   ar
    11    23    24    1
    12    23    25   ar
    13    25    26    1
    14    25    27   ar
    15    27    28   ar
    16     2     3   am
    17     3     4    1
    18     4     5    1
    19     5     6    1
    20     6     7    1
    21     7     9    1
    22     9    10   ar
    23    10    11   ar
    24    11    12   ar
    25    12    13   ar
    26    13    14   ar
    27     7     8    1
    28     8    29    1
    29    29    30    1
    30    30    31    1
    31    31    32    1
    32    32    33    1
    33    33    34    1
    34    28    16   ar
    35     8     3    1
    36    34    30    1
    37    28    21   ar
    38    14     9   ar
@<TRIPOS>MOLECULE
*****
 34 38 0 0 0
SMALL
GASTEIGER

@<TRIPOS>ATOM
      1 O          63.6476   90.3463   15.7194 O.2     1  UNL1       -0.2728
      2 C          63.8118   88.9994   15.0800 C.2     1  UNL1        0.2488
      3 N          63.3657   87.7650   15.8063 N.am    1  UNL1       -0.2779
      4 C          62.7554   87.8776   17.1718 C.3     1  UNL1        0.0935
      5 C          62.3094   86.6432   17.8980 C.3     1  UNL1        0.0219
      6 C          62.4736   85.2963   17.2586 C.3     1  UNL1        0.0078
      7 C          63.0839   85.1837   15.8930 C.3     1  UNL1        0.0419
      8 C          63.5300   86.4181   15.1669 C.3     1  UNL1        0.0953
      9 C          63.2482   83.8368   15.2536 C.ar    1  UNL1       -0.0209
     10 C          64.6191   83.2580   15.0656 C.ar    1  UNL1       -0.0042
     11 C          64.7834   81.9111   14.4262 C.ar    1  UNL1       -0.0003
     12 C          63.5767   81.1430   13.9748 C.ar    1  UNL1       -0.0000
     13 C          62.2057   81.7218   14.1629 C.ar    1  UNL1       -0.0003
     14 C          62.0415   83.0687   14.8023 C.ar    1  UNL1       -0.0042
     15 C          64.4221   88.8868   13.7145 C.3     1  UNL1        0.1943
     16 N          63.9779   89.8070   12.6162 N.ar    1  UNL1       -0.2839
     17 C          62.8488   89.4069   11.7134 C.ar    1  UNL1        0.2806
     18 O          62.1639   88.0868   11.9088 O.2     1  UNL1       -0.2652
     19 C          62.4046   90.3270   10.6152 C.ar    1  UNL1        0.1595
     20 N          63.0895   91.6472   10.4199 N.ar    1  UNL1       -0.2374
     21 C          64.2186   92.0472   11.3227 C.ar    1  UNL1        0.0982
     22 C          64.9035   93.3673   11.1273 C.ar    1  UNL1        0.0328
     23 C          66.0326   93.7674   12.0301 C.ar    1  UNL1        0.0698
     24 CL         66.7174   95.0875   11.8348 Cl      1  UNL1       -0.0813
     25 C          66.4768   92.8472   13.1284 C.ar    1  UNL1        0.0697
     26 CL         67.6059   93.2473   14.0312 Cl      1  UNL1       -0.0813
     27 C          65.7919   91.5271   13.3237 C.ar    1  UNL1        0.0310
     28 C          64.6628   91.1271   12.4209 C.ar    1  UNL1        0.0815
     29 C          64.1403   86.3056   13.8012 C.3     1  UNL1        0.0924
     30 N          63.5164   85.4099   12.7724 N.3     1  UNL1       -0.2713
     31 C          62.1013   85.4838   12.2807 C.3     1  UNL1        0.0722
     32 C          61.9084   84.4026   11.2590 C.3     1  UNL1        0.0188
     33 C          63.2044   83.6604   11.1193 C.3     1  UNL1        0.0188
     34 C          64.1982   84.2829   12.0547 C.3     1  UNL1        0.0722
@<TRIPOS>BOND
     1     1     2    2
     2     2    15    1
     3    15    16    1
     4    16    17   ar
     5    17    18    2
     6    17    19   ar
     7    19    20   ar
     8    20    21   ar
     9    21    22   ar
    10    22    23   ar
    11    23    24    1
    12    23    25   ar
    13    25    26    1
    14    25    27   ar
    15    27    28   ar
    16     2     3   am
    17     3     4    1
    18     4     5    1
    19     5     6    1
    20     6     7    1
    21     7     9    1
    22     9    10   ar
    23    10    11   ar
    24    11    12   ar
    25    12    13   ar
    26    13    14   ar
    27     7     8    1
    28     8    29    1
    29    29    30    1
    30    30    31    1
    31    31    32    1
    32    32    33    1
    33    33    34    1
    34    28    16   ar
    35     8     3    1
    36    34    30    1
    37    28    21   ar
    38    14     9   ar
@<TRIPOS>MOLECULE
*****
 34 38 0 0 0
SMALL
GASTEIGER

@<TRIPOS>ATOM
      1 O          60.8968   91.4459   11.7544 O.2     1  UNL1       -0.2728
      2 C          61.7796   90.2392   11.8752 C.2     1  UNL1        0.2488
      3 N          61.3307   88.9223   11.3145 N.am    1  UNL1       -0.2779
      4 C          59.9990   88.8121   10.6330 C.3     1  UNL1        0.0935
      5 C          59.5502   87.4953   10.0723 C.3     1  UNL1        0.0219
      6 C          60.4330   86.2886   10.1931 C.3     1  UNL1        0.0078
      7 C          61.7647   86.3988   10.8746 C.3     1  UNL1        0.0419
      8 C          62.2135   87.7157   11.4353 C.3     1  UNL1        0.0953
      9 C          62.6475   85.1922   10.9954 C.ar    1  UNL1       -0.0209
     10 C          62.7650   84.4773   12.3088 C.ar    1  UNL1       -0.0042
     11 C          63.6478   83.2706   12.4296 C.ar    1  UNL1       -0.0003
     12 C          64.4132   82.7788   11.2370 C.ar    1  UNL1       -0.0000
     13 C          64.2957   83.4937    9.9236 C.ar    1  UNL1       -0.0003
     14 C          63.4129   84.7004    9.8028 C.ar    1  UNL1       -0.0042
     15 C          63.1113   90.3494   12.5567 C.3     1  UNL1        0.1943
     16 N          64.1238   91.3427   12.0684 N.ar    1  UNL1       -0.2839
     17 C          64.1927   91.6885   10.6105 C.ar    1  UNL1        0.2806
     18 O          63.2491   91.0410    9.6407 O.2     1  UNL1       -0.2652
     19 C          65.2051   92.6817   10.1223 C.ar    1  UNL1        0.1595
     20 N          66.1487   93.3292   11.0921 N.ar    1  UNL1       -0.2374
     21 C          66.0798   92.9834   12.5500 C.ar    1  UNL1        0.0982
     22 C          67.0234   93.6309   13.5198 C.ar    1  UNL1        0.0328
     23 C          66.9545   93.2851   14.9777 C.ar    1  UNL1        0.0698
     24 CL         67.8981   93.9326   15.9475 Cl      1  UNL1       -0.0813
     25 C          65.9420   92.2918   15.4660 C.ar    1  UNL1        0.0697
     26 CL         65.8731   91.9461   16.9239 Cl      1  UNL1       -0.0813
     27 C          64.9984   91.6444   14.4962 C.ar    1  UNL1        0.0310
     28 C          65.0674   91.9902   13.0382 C.ar    1  UNL1        0.0815
     29 C          63.5453   87.8259   12.1168 C.3     1  UNL1        0.0924
     30 N          63.6695   87.5047   13.5767 N.3     1  UNL1       -0.2713
     31 C          63.4080   88.4488   14.7126 C.3     1  UNL1        0.0722
     32 C          63.6539   87.7106   15.9950 C.3     1  UNL1        0.0188
     33 C          64.0674   86.3102   15.6517 C.3     1  UNL1        0.0188
     34 C          64.0770   86.1830   14.1572 C.3     1  UNL1        0.0722
@<TRIPOS>BOND
     1     1     2    2
     2     2    15    1
     3    15    16    1
     4    16    17   ar
     5    17    18    2
     6    17    19   ar
     7    19    20   ar
     8    20    21   ar
     9    21    22   ar
    10    22    23   ar
    11    23    24    1
    12    23    25   ar
    13    25    26    1
    14    25    27   ar
    15    27    28   ar
    16     2     3   am
    17     3     4    1
    18     4     5    1
    19     5     6    1
    20     6     7    1
    21     7     9    1
    22     9    10   ar
    23    10    11   ar
    24    11    12   ar
    25    12    13   ar
    26    13    14   ar
    27     7     8    1
    28     8    29    1
    29    29    30    1
    30    30    31    1
    31    31    32    1
    32    32    33    1
    33    33    34    1
    34    28    16   ar
    35     8     3    1
    36    34    30    1
    37    28    21   ar
    38    14     9   ar
@<TRIPOS>MOLECULE
*****
 34 38 0 0 0
SMALL
GASTEIGER

@<TRIPOS>ATOM
      1 O          61.1948   93.2052   -0.7910 O.2     1  UNL1       -0.2728
      2 C          60.2851   94.0238   -1.6582 C.2     1  UNL1        0.2488
      3 N          58.8493   93.6234   -1.8272 N.am    1  UNL1       -0.2779
      4 C          58.3235   92.4044   -1.1291 C.3     1  UNL1        0.0935
      5 C          56.8878   92.0041   -1.2981 C.3     1  UNL1        0.0219
      6 C          55.9781   92.8228   -2.1654 C.3     1  UNL1        0.0078
      7 C          56.5039   94.0418   -2.8635 C.3     1  UNL1        0.0419
      8 C          57.9396   94.4421   -2.6945 C.3     1  UNL1        0.0953
      9 C          55.5941   94.8604   -3.7308 C.ar    1  UNL1       -0.0209
     10 C          54.8382   96.0156   -3.1444 C.ar    1  UNL1       -0.0042
     11 C          53.9284   96.8343   -4.0116 C.ar    1  UNL1       -0.0003
     12 C          53.7746   96.4977   -5.4652 C.ar    1  UNL1       -0.0000
     13 C          54.5305   95.3425   -6.0516 C.ar    1  UNL1       -0.0003
     14 C          55.4403   94.5238   -5.1844 C.ar    1  UNL1       -0.0042
     15 C          60.8109   95.2428   -2.3564 C.3     1  UNL1        0.1943
     16 N          62.2844   95.5238   -2.3673 N.ar    1  UNL1       -0.2839
     17 C          62.9501   96.0841   -1.1456 C.ar    1  UNL1        0.2806
     18 O          62.1426   96.3634    0.0872 O.2     1  UNL1       -0.2652
     19 C          64.4235   96.3651   -1.1566 C.ar    1  UNL1        0.1595
     20 N          65.2311   96.0858   -2.3894 N.ar    1  UNL1       -0.2374
     21 C          64.5653   95.5255   -3.6112 C.ar    1  UNL1        0.0982
     22 C          65.3729   95.2461   -4.8440 C.ar    1  UNL1        0.0328
     23 C          64.7071   94.6859   -6.0657 C.ar    1  UNL1        0.0698
     24 CL         65.5147   94.4065   -7.2985 Cl      1  UNL1       -0.0813
     25 C          63.2337   94.4049   -6.0547 C.ar    1  UNL1        0.0697
     26 CL         62.5679   93.8446   -7.2765 Cl      1  UNL1       -0.0813
     27 C          62.4261   94.6842   -4.8219 C.ar    1  UNL1        0.0310
     28 C          63.0920   95.2445   -3.6001 C.ar    1  UNL1        0.0815
     29 C          58.4655   95.6611   -3.3927 C.3     1  UNL1        0.0924
     30 N          58.6076   95.6674   -4.8859 N.3     1  UNL1       -0.2713
     31 C          58.3137   96.8240   -5.7947 C.3     1  UNL1        0.0722
     32 C          58.5931   96.3897   -7.2030 C.3     1  UNL1        0.0188
     33 C          59.0596   94.9646   -7.1646 C.3     1  UNL1        0.0188
     34 C          59.0686   94.5183   -5.7326 C.3     1  UNL1        0.0722
@<TRIPOS>BOND
     1     1     2    2
     2     2    15    1
     3    15    16    1
     4    16    17   ar
     5    17    18    2
     6    17    19   ar
     7    19    20   ar
     8    20    21   ar
     9    21    22   ar
    10    22    23   ar
    11    23    24    1
    12    23    25   ar
    13    25    26    1
    14    25    27   ar
    15    27    28   ar
    16     2     3   am
    17     3     4    1
    18     4     5    1
    19     5     6    1
    20     6     7    1
    21     7     9    1
    22     9    10   ar
    23    10    11   ar
    24    11    12   ar
    25    12    13   ar
    26    13    14   ar
    27     7     8    1
    28     8    29    1
    29    29    30    1
    30    30    31    1
    31    31    32    1
    32    32    33    1
    33    33    34    1
    34    28    16   ar
    35     8     3    1
    36    34    30    1
    37    28    21   ar
    38    14     9   ar
@<TRIPOS>MOLECULE
*****
 34 38 0 0 0
SMALL
GASTEIGER

@<TRIPOS>ATOM
      1 O          60.9010   93.0222   -1.0271 O.2     1  UNL1       -0.2728
      2 C          60.0600   93.8552   -1.9484 C.2     1  UNL1        0.2488
      3 N          58.6152   93.5124   -2.1605 N.am    1  UNL1       -0.2779
      4 C          58.0114   92.3366   -1.4514 C.3     1  UNL1        0.0935
      5 C          56.5666   91.9938   -1.6636 C.3     1  UNL1        0.0219
      6 C          55.7256   92.8268   -2.5849 C.3     1  UNL1        0.0078
      7 C          56.3294   94.0026   -3.2940 C.3     1  UNL1        0.0419
      8 C          57.7742   94.3454   -3.0818 C.3     1  UNL1        0.0953
      9 C          55.4884   94.8356   -4.2153 C.ar    1  UNL1       -0.0209
     10 C          54.7406   96.0214   -3.6817 C.ar    1  UNL1       -0.0042
     11 C          53.8996   96.8544   -4.6030 C.ar    1  UNL1       -0.0003
     12 C          53.8064   96.5017   -6.0579 C.ar    1  UNL1       -0.0000
     13 C          54.5541   95.3159   -6.5915 C.ar    1  UNL1       -0.0003
     14 C          55.3951   94.4829   -5.6702 C.ar    1  UNL1       -0.0042
     15 C          60.6638   95.0310   -2.6575 C.3     1  UNL1        0.1943
     16 N          62.1537   95.1418   -2.7918 N.ar    1  UNL1       -0.2839
     17 C          62.8144   94.8247   -4.1006 C.ar    1  UNL1        0.2806
     18 O          61.9852   94.3970   -5.2751 O.2     1  UNL1       -0.2652
     19 C          64.3042   94.9355   -4.2349 C.ar    1  UNL1        0.1595
     20 N          65.1334   95.3633   -3.0603 N.ar    1  UNL1       -0.2374
     21 C          64.4727   95.6803   -1.7516 C.ar    1  UNL1        0.0982
     22 C          65.3019   96.1080   -0.5770 C.ar    1  UNL1        0.0328
     23 C          64.6412   96.4250    0.7318 C.ar    1  UNL1        0.0698
     24 CL         65.4704   96.8528    1.9063 Cl      1  UNL1       -0.0813
     25 C          63.1513   96.3143    0.8661 C.ar    1  UNL1        0.0697
     26 CL         62.4906   96.6313    2.1748 Cl      1  UNL1       -0.0813
     27 C          62.3221   95.8865   -0.3085 C.ar    1  UNL1        0.0310
     28 C          62.9829   95.5695   -1.6173 C.ar    1  UNL1        0.0815
     29 C          58.3780   95.5213   -3.7910 C.3     1  UNL1        0.0924
     30 N          58.7353   95.4181   -5.2442 N.3     1  UNL1       -0.2713
     31 C          59.0628   96.5640   -6.1551 C.3     1  UNL1        0.0722
     32 C          59.3578   96.0051   -7.5155 C.3     1  UNL1        0.0188
     33 C          59.2126   94.5137   -7.4453 C.3     1  UNL1        0.0188
     34 C          58.8280   94.1510   -6.0416 C.3     1  UNL1        0.0722
@<TRIPOS>BOND
     1     1     2    2
     2     2    15    1
     3    15    16    1
     4    16    17   ar
     5    17    18    2
     6    17    19   ar
     7    19    20   ar
     8    20    21   ar
     9    21    22   ar
    10    22    23   ar
    11    23    24    1
    12    23    25   ar
    13    25    26    1
    14    25    27   ar
    15    27    28   ar
    16     2     3   am
    17     3     4    1
    18     4     5    1
    19     5     6    1
    20     6     7    1
    21     7     9    1
    22     9    10   ar
    23    10    11   ar
    24    11    12   ar
    25    12    13   ar
    26    13    14   ar
    27     7     8    1
    28     8    29    1
    29    29    30    1
    30    30    31    1
    31    31    32    1
    32    32    33    1
    33    33    34    1
    34    28    16   ar
    35     8     3    1
    36    34    30    1
    37    28    21   ar
    38    14     9   ar
