@<TRIPOS>MOLECULE
*****
 32 35 0 0 0
SMALL
GASTEIGER

@<TRIPOS>ATOM
      1 C          64.7417   88.0519   14.7092 C.3     1  UNL1        0.0328
      2 C          63.9852   88.7022   13.5891 C.ar    1  UNL1        0.0002
      3 C          64.0436   90.1902   13.4092 C.ar    1  UNL1        0.0774
      4 N          63.2870   90.8406   12.2891 N.ar    1  UNL1       -0.2457
      5 C          62.4720   90.0029   11.3488 C.ar    1  UNL1        0.0814
      6 C          61.7155   90.6532   10.2287 C.ar    1  UNL1        0.0195
      7 C          60.9005   89.8156    9.2885 C.ar    1  UNL1        0.0073
      8 C          60.8421   88.3275    9.4683 C.ar    1  UNL1        0.0302
      9 I          60.0271   87.4898    8.5280 I       1  UNL1       -0.0425
     10 C          61.5986   87.6772   10.5884 C.ar    1  UNL1        0.0074
     11 C          62.4136   88.5149   11.5287 C.ar    1  UNL1        0.0222
     12 C          63.1702   87.8645   12.6488 C.ar    1  UNL1        0.0526
     13 C          64.8586   91.0279   14.3495 C.ar    1  UNL1        0.0173
     14 C          64.2821   91.4520   15.6678 C.ar    1  UNL1        0.0015
     15 C          65.0972   92.2897   16.6080 C.ar    1  UNL1        0.0000
     16 C          66.4886   92.7032   16.2300 C.ar    1  UNL1        0.0000
     17 C          67.0650   92.2791   14.9117 C.ar    1  UNL1        0.0000
     18 C          66.2500   91.4414   13.9715 C.ar    1  UNL1        0.0015
     19 C          63.1118   86.3765   12.8287 C.2     1  UNL1        0.2493
     20 O          63.2016   85.7831   14.2033 O.2     1  UNL1       -0.2698
     21 N          62.9636   85.4818   11.6338 N.am    1  UNL1       -0.2786
     22 H          62.9046   85.8713   10.7315 H       1  UNL1        0.1552
     23 C          62.9051   83.9938   11.8136 C.ar    1  UNL1        0.0784
     24 C          62.3873   83.4131   13.0960 C.ar    1  UNL1        0.0170
     25 C          62.3289   81.9251   13.2759 C.ar    1  UNL1        0.0025
     26 C          62.7883   81.0177   12.1733 C.ar    1  UNL1        0.0163
     27 C          63.3061   81.5984   10.8908 C.ar    1  UNL1        0.0320
     28 C          63.3646   83.0865   10.7110 C.ar    1  UNL1        0.1535
     29 F          63.8824   83.6672    9.4286 F       1  UNL1       -0.2029
     30 C          62.7299   79.5297   12.3532 C.2     1  UNL1        0.0729
     31 O          62.7134   78.6293   11.1535 O.co2   1  UNL1       -0.5446
     32 O          62.6879   78.9421   13.7326 O.co2   1  UNL1       -0.5446
@<TRIPOS>UNITY_ATOM_ATTR
31 1
charge -1
@<TRIPOS>BOND
     1     1     2    1
     2     2     3   ar
     3     3    13    1
     4    13    14   ar
     5    14    15   ar
     6    15    16   ar
     7    16    17   ar
     8    17    18   ar
     9     3     4   ar
    10     4     5   ar
    11     5     6   ar
    12     6     7   ar
    13     7     8   ar
    14     8     9    1
    15     8    10   ar
    16    10    11   ar
    17    11    12   ar
    18    12    19    1
    19    19    20    2
    20    19    21   am
    21    21    23    1
    22    23    24   ar
    23    24    25   ar
    24    25    26   ar
    25    26    30    1
    26    30    31   ar
    27    30    32   ar
    28    26    27   ar
    29    27    28   ar
    30    28    29    1
    31    12     2   ar
    32    28    23   ar
    33    18    13   ar
    34    11     5   ar
    35    21    22    1
@<TRIPOS>MOLECULE
*****
 32 35 0 0 0
SMALL
GASTEIGER

@<TRIPOS>ATOM
      1 C          61.7210   84.2489   10.5590 C.3     1  UNL1        0.0328
      2 C          62.3972   84.9717   11.6861 C.ar    1  UNL1        0.0002
      3 C          62.8959   84.2063   12.8759 C.ar    1  UNL1        0.0774
      4 N          63.5721   84.9290   14.0030 N.ar    1  UNL1       -0.2457
      5 C          63.7498   86.4172   13.9403 C.ar    1  UNL1        0.0814
      6 C          64.4260   87.1399   15.0674 C.ar    1  UNL1        0.0195
      7 C          64.6037   88.6280   15.0046 C.ar    1  UNL1        0.0073
      8 C          64.1051   89.3933   13.8148 C.ar    1  UNL1        0.0302
      9 I          64.2828   90.8815   13.7522 I       1  UNL1       -0.0425
     10 C          63.4288   88.6706   12.6878 C.ar    1  UNL1        0.0074
     11 C          63.2512   87.1825   12.7505 C.ar    1  UNL1        0.0222
     12 C          62.5749   86.4597   11.6234 C.ar    1  UNL1        0.0526
     13 C          62.7182   82.7181   12.9386 C.ar    1  UNL1        0.0173
     14 C          62.0042   82.0964   14.1021 C.ar    1  UNL1        0.0015
     15 C          61.8266   80.6083   14.1647 C.ar    1  UNL1        0.0000
     16 C          62.3629   79.7419   13.0639 C.ar    1  UNL1        0.0000
     17 C          63.0768   80.3637   11.9004 C.ar    1  UNL1        0.0000
     18 C          63.2545   81.8517   11.8378 C.ar    1  UNL1        0.0015
     19 C          62.0763   87.2251   10.4336 C.2     1  UNL1        0.2493
     20 O          63.0460   87.7313    9.4073 O.2     1  UNL1       -0.2698
     21 N          60.6079   87.4843   10.2702 N.am    1  UNL1       -0.2786
     22 H          59.9714   87.1520   10.9438 H       1  UNL1        0.1552
     23 C          60.1093   88.2497    9.0804 C.ar    1  UNL1        0.0784
     24 C          60.2696   89.7400    9.0264 C.ar    1  UNL1        0.0170
     25 C          59.7710   90.5054    7.8366 C.ar    1  UNL1        0.0025
     26 C          59.1120   89.7804    6.7008 C.ar    1  UNL1        0.0163
     27 C          58.9517   88.2899    6.7547 C.ar    1  UNL1        0.0320
     28 C          59.4503   87.5245    7.9445 C.ar    1  UNL1        0.1535
     29 F          59.2900   86.0341    7.9985 F       1  UNL1       -0.2029
     30 C          58.6134   90.5458    5.5110 C.2     1  UNL1        0.0729
     31 O          57.1394   90.6623    5.2581 O.co2   1  UNL1       -0.5446
     32 O          59.5887   91.1946    4.5741 O.co2   1  UNL1       -0.5446
@<TRIPOS>UNITY_ATOM_ATTR
31 1
charge -1
@<TRIPOS>BOND
     1     1     2    1
     2     2     3   ar
     3     3    13    1
     4    13    14   ar
     5    14    15   ar
     6    15    16   ar
     7    16    17   ar
     8    17    18   ar
     9     3     4   ar
    10     4     5   ar
    11     5     6   ar
    12     6     7   ar
    13     7     8   ar
    14     8     9    1
    15     8    10   ar
    16    10    11   ar
    17    11    12   ar
    18    12    19    1
    19    19    20    2
    20    19    21   am
    21    21    23    1
    22    23    24   ar
    23    24    25   ar
    24    25    26   ar
    25    26    30    1
    26    30    31   ar
    27    30    32   ar
    28    26    27   ar
    29    27    28   ar
    30    28    29    1
    31    12     2   ar
    32    28    23   ar
    33    18    13   ar
    34    11     5   ar
    35    21    22    1
@<TRIPOS>MOLECULE
*****
 32 35 0 0 0
SMALL
GASTEIGER

@<TRIPOS>ATOM
      1 C          64.4645   88.0799   14.5263 C.3     1  UNL1        0.0328
      2 C          63.8296   88.8689   13.4198 C.ar    1  UNL1        0.0002
      3 C          64.0655   90.3470   13.3218 C.ar    1  UNL1        0.0774
      4 N          63.4307   91.1361   12.2153 N.ar    1  UNL1       -0.2457
      5 C          62.5599   90.4470   11.2067 C.ar    1  UNL1        0.0814
      6 C          61.9251   91.2361   10.1002 C.ar    1  UNL1        0.0195
      7 C          61.0544   90.5471    9.0918 C.ar    1  UNL1        0.0073
      8 C          60.8186   89.0690    9.1898 C.ar    1  UNL1        0.0302
      9 I          59.9478   88.3799    8.1812 I       1  UNL1       -0.0425
     10 C          61.4534   88.2799   10.2962 C.ar    1  UNL1        0.0074
     11 C          62.3241   88.9689   11.3047 C.ar    1  UNL1        0.0222
     12 C          62.9589   88.1799   12.4113 C.ar    1  UNL1        0.0526
     13 C          64.9362   91.0361   14.3303 C.ar    1  UNL1        0.0173
     14 C          66.3999   91.2180   14.0578 C.ar    1  UNL1        0.0015
     15 C          67.2706   91.9070   15.0663 C.ar    1  UNL1        0.0000
     16 C          66.6775   92.4141   16.3474 C.ar    1  UNL1        0.0000
     17 C          65.2138   92.2321   16.6200 C.ar    1  UNL1        0.0000
     18 C          64.3431   91.5431   15.6114 C.ar    1  UNL1        0.0015
     19 C          62.7231   86.7018   12.5093 C.2     1  UNL1        0.2493
     20 O          61.4633   86.1050   11.9555 O.2     1  UNL1       -0.2698
     21 N          63.7470   85.8205   13.1612 N.am    1  UNL1       -0.2786
     22 H          64.5739   86.2122   13.5247 H       1  UNL1        0.1552
     23 C          63.5112   84.3424   13.2592 C.ar    1  UNL1        0.0784
     24 C          64.0258   83.4281   12.1872 C.ar    1  UNL1        0.0170
     25 C          63.7900   81.9500   12.2852 C.ar    1  UNL1        0.0025
     26 C          63.0395   81.3862   13.4552 C.ar    1  UNL1        0.0163
     27 C          62.5248   82.3005   14.5272 C.ar    1  UNL1        0.0320
     28 C          62.7606   83.7786   14.4292 C.ar    1  UNL1        0.1535
     29 F          62.2460   84.6929   15.5012 F       1  UNL1       -0.2029
     30 C          62.8036   79.9081   13.5532 C.2     1  UNL1        0.0729
     31 O          62.5818   79.0999   12.3091 O.co2   1  UNL1       -0.5446
     32 O          62.7896   79.2382   14.8952 O.co2   1  UNL1       -0.5446
@<TRIPOS>UNITY_ATOM_ATTR
31 1
charge -1
@<TRIPOS>BOND
     1     1     2    1
     2     2     3   ar
     3     3    13    1
     4    13    14   ar
     5    14    15   ar
     6    15    16   ar
     7    16    17   ar
     8    17    18   ar
     9     3     4   ar
    10     4     5   ar
    11     5     6   ar
    12     6     7   ar
    13     7     8   ar
    14     8     9    1
    15     8    10   ar
    16    10    11   ar
    17    11    12   ar
    18    12    19    1
    19    19    20    2
    20    19    21   am
    21    21    23    1
    22    23    24   ar
    23    24    25   ar
    24    25    26   ar
    25    26    30    1
    26    30    31   ar
    27    30    32   ar
    28    26    27   ar
    29    27    28   ar
    30    28    29    1
    31    12     2   ar
    32    28    23   ar
    33    18    13   ar
    34    11     5   ar
    35    21    22    1
@<TRIPOS>MOLECULE
*****
 32 35 0 0 0
SMALL
GASTEIGER

@<TRIPOS>ATOM
      1 C          63.7590   87.9100   13.0184 C.3     1  UNL1        0.0328
      2 C          62.7841   87.5356   11.9415 C.ar    1  UNL1        0.0002
      3 C          62.2883   86.1239   11.8365 C.ar    1  UNL1        0.0774
      4 N          61.3135   85.7494   10.7597 N.ar    1  UNL1       -0.2457
      5 C          60.8345   86.7868    9.7878 C.ar    1  UNL1        0.0814
      6 C          59.8597   86.4124    8.7110 C.ar    1  UNL1        0.0195
      7 C          59.3808   87.4498    7.7392 C.ar    1  UNL1        0.0073
      8 C          59.8766   88.8615    7.8442 C.ar    1  UNL1        0.0302
      9 I          59.3976   89.8989    6.8723 I       1  UNL1       -0.0425
     10 C          60.8514   89.2360    8.9210 C.ar    1  UNL1        0.0074
     11 C          61.3303   88.1986    9.8928 C.ar    1  UNL1        0.0222
     12 C          62.3052   88.5730   10.9697 C.ar    1  UNL1        0.0526
     13 C          62.7673   85.0865   12.8084 C.ar    1  UNL1        0.0173
     14 C          63.8555   84.1332   12.4122 C.ar    1  UNL1        0.0015
     15 C          64.3344   83.0959   13.3840 C.ar    1  UNL1        0.0000
     16 C          63.7251   83.0119   14.7521 C.ar    1  UNL1        0.0000
     17 C          62.6369   83.9651   15.1484 C.ar    1  UNL1        0.0000
     18 C          62.1580   85.0024   14.1765 C.ar    1  UNL1        0.0015
     19 C          62.8010   89.9848   11.0747 C.2     1  UNL1        0.2493
     20 O          61.8230   91.1179   11.1717 O.2     1  UNL1       -0.2698
     21 N          64.2750   90.2634   11.0827 N.am    1  UNL1       -0.2786
     22 H          64.9169   89.5196   11.0190 H       1  UNL1        0.1552
     23 C          64.7708   91.6751   11.1876 C.ar    1  UNL1        0.0784
     24 C          64.6651   92.5968   10.0090 C.ar    1  UNL1        0.0170
     25 C          65.1609   94.0086   10.1140 C.ar    1  UNL1        0.0025
     26 C          65.7625   94.4987   11.3976 C.ar    1  UNL1        0.0163
     27 C          65.8683   93.5770   12.5764 C.ar    1  UNL1        0.0320
     28 C          65.3724   92.1652   12.4714 C.ar    1  UNL1        0.1535
     29 F          65.4781   91.2436   13.6501 F       1  UNL1       -0.2029
     30 C          66.2584   95.9105   11.5026 C.2     1  UNL1        0.0729
     31 O          66.9378   96.5558   10.3313 O.co2   1  UNL1       -0.5446
     32 O          66.0748   96.6769   12.7789 O.co2   1  UNL1       -0.5446
@<TRIPOS>UNITY_ATOM_ATTR
31 1
charge -1
@<TRIPOS>BOND
     1     1     2    1
     2     2     3   ar
     3     3    13    1
     4    13    14   ar
     5    14    15   ar
     6    15    16   ar
     7    16    17   ar
     8    17    18   ar
     9     3     4   ar
    10     4     5   ar
    11     5     6   ar
    12     6     7   ar
    13     7     8   ar
    14     8     9    1
    15     8    10   ar
    16    10    11   ar
    17    11    12   ar
    18    12    19    1
    19    19    20    2
    20    19    21   am
    21    21    23    1
    22    23    24   ar
    23    24    25   ar
    24    25    26   ar
    25    26    30    1
    26    30    31   ar
    27    30    32   ar
    28    26    27   ar
    29    27    28   ar
    30    28    29    1
    31    12     2   ar
    32    28    23   ar
    33    18    13   ar
    34    11     5   ar
    35    21    22    1
@<TRIPOS>MOLECULE
*****
 32 35 0 0 0
SMALL
GASTEIGER

@<TRIPOS>ATOM
      1 C          57.5716   93.0911   -0.4698 C.3     1  UNL1        0.0328
      2 C          58.7272   94.0322   -0.6410 C.ar    1  UNL1        0.0002
      3 C          58.7038   95.0572   -1.7358 C.ar    1  UNL1        0.0774
      4 N          59.8592   95.9982   -1.9070 N.ar    1  UNL1       -0.2457
      5 C          61.0382   95.9142   -0.9833 C.ar    1  UNL1        0.0814
      6 C          62.1936   96.8553   -1.1545 C.ar    1  UNL1        0.0195
      7 C          63.3724   96.7712   -0.2308 C.ar    1  UNL1        0.0073
      8 C          63.3958   95.7462    0.8641 C.ar    1  UNL1        0.0302
      9 I          64.5747   95.6622    1.7878 I       1  UNL1       -0.0425
     10 C          62.2403   94.8052    1.0353 C.ar    1  UNL1        0.0074
     11 C          61.0615   94.8892    0.1116 C.ar    1  UNL1        0.0222
     12 C          59.9060   93.9481    0.2827 C.ar    1  UNL1        0.0526
     13 C          57.5249   95.1412   -2.6596 C.ar    1  UNL1        0.0173
     14 C          56.3522   96.0056   -2.3023 C.ar    1  UNL1        0.0015
     15 C          55.1734   96.0895   -3.2260 C.ar    1  UNL1        0.0000
     16 C          55.1672   95.3091   -4.5070 C.ar    1  UNL1        0.0000
     17 C          56.3399   94.4448   -4.8643 C.ar    1  UNL1        0.0000
     18 C          57.5187   94.3608   -3.9406 C.ar    1  UNL1        0.0015
     19 C          59.9293   92.9231    1.3776 C.2     1  UNL1        0.2493
     20 O          60.4533   91.5446    1.1034 O.2     1  UNL1       -0.2698
     21 N          59.4287   93.2766    2.7467 N.am    1  UNL1       -0.2786
     22 H          59.0847   94.1813    2.9267 H       1  UNL1        0.1552
     23 C          59.4520   92.2515    3.8416 C.ar    1  UNL1        0.0784
     24 C          58.1710   91.8174    4.4901 C.ar    1  UNL1        0.0170
     25 C          58.1944   90.7924    5.5849 C.ar    1  UNL1        0.0025
     26 C          59.4988   90.2014    6.0313 C.ar    1  UNL1        0.0163
     27 C          60.7799   90.6355    5.3829 C.ar    1  UNL1        0.0320
     28 C          60.7565   91.6606    4.2880 C.ar    1  UNL1        0.1535
     29 F          62.0375   92.0947    3.6396 F       1  UNL1       -0.2029
     30 C          59.5221   89.1764    7.1262 C.2     1  UNL1        0.0729
     31 O          58.7681   87.8897    6.9652 O.co2   1  UNL1       -0.5446
     32 O          60.2995   89.4380    8.3820 O.co2   1  UNL1       -0.5446
@<TRIPOS>UNITY_ATOM_ATTR
31 1
charge -1
@<TRIPOS>BOND
     1     1     2    1
     2     2     3   ar
     3     3    13    1
     4    13    14   ar
     5    14    15   ar
     6    15    16   ar
     7    16    17   ar
     8    17    18   ar
     9     3     4   ar
    10     4     5   ar
    11     5     6   ar
    12     6     7   ar
    13     7     8   ar
    14     8     9    1
    15     8    10   ar
    16    10    11   ar
    17    11    12   ar
    18    12    19    1
    19    19    20    2
    20    19    21   am
    21    21    23    1
    22    23    24   ar
    23    24    25   ar
    24    25    26   ar
    25    26    30    1
    26    30    31   ar
    27    30    32   ar
    28    26    27   ar
    29    27    28   ar
    30    28    29    1
    31    12     2   ar
    32    28    23   ar
    33    18    13   ar
    34    11     5   ar
    35    21    22    1
@<TRIPOS>MOLECULE
*****
 32 35 0 0 0
SMALL
GASTEIGER

@<TRIPOS>ATOM
      1 C          61.6234   92.9493   -2.5040 C.3     1  UNL1        0.0328
      2 C          62.7397   93.8389   -2.0426 C.ar    1  UNL1        0.0002
      3 C          63.7261   94.3802   -3.0345 C.ar    1  UNL1        0.0774
      4 N          64.8423   95.2697   -2.5732 N.ar    1  UNL1       -0.2457
      5 C          64.9720   95.6179   -1.1199 C.ar    1  UNL1        0.0814
      6 C          66.0882   96.5075   -0.6585 C.ar    1  UNL1        0.0195
      7 C          66.2179   96.8557    0.7947 C.ar    1  UNL1        0.0073
      8 C          65.2314   96.3143    1.7866 C.ar    1  UNL1        0.0302
      9 I          65.3612   96.6626    3.2399 I       1  UNL1       -0.0425
     10 C          64.1153   95.4248    1.3252 C.ar    1  UNL1        0.0074
     11 C          63.9856   95.0766   -0.1280 C.ar    1  UNL1        0.0222
     12 C          62.8694   94.1871   -0.5894 C.ar    1  UNL1        0.0526
     13 C          63.5964   94.0320   -4.4878 C.ar    1  UNL1        0.0173
     14 C          62.7461   94.8778   -5.3887 C.ar    1  UNL1        0.0015
     15 C          62.6164   94.5295   -6.8419 C.ar    1  UNL1        0.0000
     16 C          63.3370   93.3354   -7.3942 C.ar    1  UNL1        0.0000
     17 C          64.1872   92.4896   -6.4933 C.ar    1  UNL1        0.0000
     18 C          64.3169   92.8379   -5.0401 C.ar    1  UNL1        0.0015
     19 C          61.8829   93.6457    0.4025 C.2     1  UNL1        0.2493
     20 O          60.4112   93.7700    0.1408 O.2     1  UNL1       -0.2698
     21 N          62.3682   92.9801    1.6561 N.am    1  UNL1       -0.2786
     22 H          63.3342   92.8986    1.8279 H       1  UNL1        0.1552
     23 C          61.3817   92.4388    2.6480 C.ar    1  UNL1        0.0784
     24 C          59.9558   92.9033    2.6176 C.ar    1  UNL1        0.0170
     25 C          58.9694   92.3619    3.6095 C.ar    1  UNL1        0.0025
     26 C          59.4088   91.3561    4.6318 C.ar    1  UNL1        0.0163
     27 C          60.8348   90.8916    4.6623 C.ar    1  UNL1        0.0320
     28 C          61.8213   91.4329    3.6704 C.ar    1  UNL1        0.1535
     29 F          63.2472   90.9685    3.7008 F       1  UNL1       -0.2029
     30 C          58.4223   90.8148    5.6237 C.2     1  UNL1        0.0729
     31 O          56.9644   91.1393    5.4850 O.co2   1  UNL1       -0.5446
     32 O          58.8937   89.9490    6.7542 O.co2   1  UNL1       -0.5446
@<TRIPOS>UNITY_ATOM_ATTR
31 1
charge -1
@<TRIPOS>BOND
     1     1     2    1
     2     2     3   ar
     3     3    13    1
     4    13    14   ar
     5    14    15   ar
     6    15    16   ar
     7    16    17   ar
     8    17    18   ar
     9     3     4   ar
    10     4     5   ar
    11     5     6   ar
    12     6     7   ar
    13     7     8   ar
    14     8     9    1
    15     8    10   ar
    16    10    11   ar
    17    11    12   ar
    18    12    19    1
    19    19    20    2
    20    19    21   am
    21    21    23    1
    22    23    24   ar
    23    24    25   ar
    24    25    26   ar
    25    26    30    1
    26    30    31   ar
    27    30    32   ar
    28    26    27   ar
    29    27    28   ar
    30    28    29    1
    31    12     2   ar
    32    28    23   ar
    33    18    13   ar
    34    11     5   ar
    35    21    22    1
