@<TRIPOS>MOLECULE
*****
 39 43 0 0 0
SMALL
GASTEIGER

@<TRIPOS>ATOM
      1 N          63.7762   90.1980   13.4535 N.3     1  UNL1       -0.2679
      2 C          64.5909   91.3280   12.8974 C.3     1  UNL1        0.0978
      3 C          64.4717   91.6964   11.4483 C.3     1  UNL1        0.0224
      4 C          65.2864   92.8264   10.8921 C.3     1  UNL1        0.0065
      5 C          66.2204   93.5880   11.7851 C.3     1  UNL1        0.0277
      6 C          66.3397   93.2197   13.2343 C.ar    1  UNL1       -0.0073
      7 C          67.2738   93.9813   14.1273 C.ar    1  UNL1       -0.0015
      8 C          67.3931   93.6129   15.5765 C.ar    1  UNL1        0.0203
      9 C          66.5783   92.4829   16.1326 C.ar    1  UNL1        0.0985
     10 N          65.6443   91.7213   15.2396 N.ar    1  UNL1       -0.2471
     11 C          65.5250   92.0897   13.7904 C.ar    1  UNL1        0.0695
     12 C          64.4428   89.1098   14.2417 C.3     1  UNL1        0.0725
     13 C          63.8568   88.6635   15.5485 C.3     1  UNL1        0.0187
     14 C          63.7066   87.2003   15.8424 C.3     1  UNL1        0.0158
     15 C          64.5625   86.8739   14.6546 C.3     1  UNL1        0.0014
     16 C          62.8507   87.5267   17.0301 C.3     1  UNL1        0.0014
     17 C          63.5563   85.7371   16.1362 C.3     1  UNL1        0.0685
     18 N          62.3584   84.9896   15.6300 N.3     1  UNL1       -0.2985
     19 H          61.9552   84.5027   16.4305 H       1  UNL1        0.1232
     20 C          63.1638   81.8620   10.8960 C.3     1  UNL1        0.0000
     21 C          62.8287   81.9383   12.3560 C.3     1  UNL1        0.0001
     22 C          62.7338   80.4564   12.1441 C.3     1  UNL1        0.0000
     23 C          62.4607   81.4999   13.7425 C.3     1  UNL1        0.0014
     24 C          62.3039   82.5171   14.8339 C.3     1  UNL1        0.0157
     25 C          62.5152   83.9724   14.5387 C.3     1  UNL1        0.0540
     26 C          62.8832   84.4108   13.1522 C.3     1  UNL1        0.0157
     27 C          63.0400   83.3938   12.0609 C.3     1  UNL1        0.0014
     28 C          62.2949   90.1563   13.2215 C.3     1  UNL1        0.0886
     29 C          61.7475   89.5092   11.9838 C.3     1  UNL1        0.0748
     30 C          62.3427   88.2271   11.4820 C.3     1  UNL1        0.0432
     31 C          61.7953   87.5799   10.2443 C.ar    1  UNL1       -0.0234
     32 C          62.3905   86.2978    9.7425 C.ar    1  UNL1       -0.0045
     33 C          61.8432   85.6507    8.5049 C.ar    1  UNL1       -0.0003
     34 C          60.7006   86.2858    7.7692 C.ar    1  UNL1       -0.0003
     35 C          60.1054   87.5678    8.2711 C.ar    1  UNL1       -0.0032
     36 C          60.6527   88.2149    9.5086 C.ar    1  UNL1       -0.0103
     37 C          60.0575   89.4971   10.0106 C.3     1  UNL1        0.0953
     38 N          60.6049   90.1442   11.2481 N.3     1  UNL1       -0.2934
     39 H          59.8319   90.2153   11.9098 H       1  UNL1        0.1236
@<TRIPOS>BOND
     1    20    21    1
     2    21    22    1
     3    21    23    1
     4    23    24    1
     5    24    25    1
     6    25    18    1
     7    18    17    1
     8    17    14    1
     9    14    15    1
    10    14    16    1
    11    14    13    1
    12    13    12    1
    13    12     1    1
    14     1    28    1
    15    29    28    1
    16    29    30    1
    17    30    31    1
    18    31    32   ar
    19    32    33   ar
    20    33    34   ar
    21    34    35   ar
    22    35    36   ar
    23    36    37    1
    24    37    38    1
    25     2     1    1
    26     2     3    1
    27     3     4    1
    28     4     5    1
    29     5     6    1
    30     6     7   ar
    31     7     8   ar
    32     8     9   ar
    33     9    10   ar
    34    10    11   ar
    35    25    26    1
    36    26    27    1
    37    27    21    1
    38    38    29    1
    39    11     2    1
    40    36    31   ar
    41    11     6   ar
    42    18    19    1
    43    38    39    1
@<TRIPOS>MOLECULE
*****
 39 43 0 0 0
SMALL
GASTEIGER

@<TRIPOS>ATOM
      1 N          64.0456   90.1987   13.8084 N.3     1  UNL1       -0.2679
      2 C          64.9643   91.3702   13.9915 C.3     1  UNL1        0.0978
      3 C          65.5471   91.6624   15.3424 C.3     1  UNL1        0.0224
      4 C          66.4658   92.8339   15.5254 C.3     1  UNL1        0.0065
      5 C          66.8016   93.7133   14.3576 C.3     1  UNL1        0.0277
      6 C          66.2188   93.4212   13.0067 C.ar    1  UNL1       -0.0073
      7 C          66.5546   94.3006   11.8388 C.ar    1  UNL1       -0.0015
      8 C          65.9718   94.0084   10.4880 C.ar    1  UNL1        0.0203
      9 C          65.0531   92.8369   10.3049 C.ar    1  UNL1        0.0985
     10 N          64.7173   91.9575   11.4727 N.ar    1  UNL1       -0.2471
     11 C          65.3001   92.2496   12.8237 C.ar    1  UNL1        0.0695
     12 C          64.4198   88.8577   14.3667 C.3     1  UNL1        0.0725
     13 C          63.8452   88.4034   15.6757 C.3     1  UNL1        0.0187
     14 C          63.6550   86.9399   15.9437 C.3     1  UNL1        0.0158
     15 C          62.7317   87.2678   17.0795 C.3     1  UNL1        0.0014
     16 C          64.5783   86.6119   14.8080 C.3     1  UNL1        0.0014
     17 C          63.4648   85.4763   16.2117 C.3     1  UNL1        0.0685
     18 N          62.2751   84.7587   15.6464 N.3     1  UNL1       -0.2985
     19 H          61.8390   84.2569   16.4200 H       1  UNL1        0.1232
     20 C          63.1874   81.7452   10.8581 C.3     1  UNL1        0.0000
     21 C          62.8159   81.7869   12.3107 C.3     1  UNL1        0.0001
     22 C          62.7207   80.3111   12.0599 C.3     1  UNL1        0.0000
     23 C          62.4115   81.3162   13.6763 C.3     1  UNL1        0.0014
     24 C          62.2312   82.3068   14.7882 C.3     1  UNL1        0.0157
     25 C          62.4554   83.7681   14.5345 C.3     1  UNL1        0.0540
     26 C          62.8599   84.2388   13.1689 C.3     1  UNL1        0.0157
     27 C          63.0402   83.2483   12.0571 C.3     1  UNL1        0.0014
     28 C          62.7527   90.3681   13.0671 C.3     1  UNL1        0.0886
     29 C          62.3333   89.3502   12.0482 C.3     1  UNL1        0.0748
     30 C          61.4099   89.7417   10.9329 C.3     1  UNL1        0.0432
     31 C          60.9906   88.7238    9.9140 C.ar    1  UNL1       -0.0234
     32 C          60.0672   89.1153    8.7987 C.ar    1  UNL1       -0.0045
     33 C          59.6479   88.0974    7.7799 C.ar    1  UNL1       -0.0003
     34 C          60.1520   86.6879    7.8764 C.ar    1  UNL1       -0.0003
     35 C          61.0755   86.2964    8.9917 C.ar    1  UNL1       -0.0032
     36 C          61.4947   87.3143   10.0105 C.ar    1  UNL1       -0.0103
     37 C          62.4182   86.9228   11.1259 C.3     1  UNL1        0.0953
     38 N          62.8375   87.9407   12.1447 N.3     1  UNL1       -0.2934
     39 H          63.8557   87.9893   12.1107 H       1  UNL1        0.1236
@<TRIPOS>BOND
     1    20    21    1
     2    21    22    1
     3    21    23    1
     4    23    24    1
     5    24    25    1
     6    25    18    1
     7    18    17    1
     8    17    14    1
     9    14    15    1
    10    14    16    1
    11    14    13    1
    12    13    12    1
    13    12     1    1
    14     1    28    1
    15    29    28    1
    16    29    30    1
    17    30    31    1
    18    31    32   ar
    19    32    33   ar
    20    33    34   ar
    21    34    35   ar
    22    35    36   ar
    23    36    37    1
    24    37    38    1
    25     2     1    1
    26     2     3    1
    27     3     4    1
    28     4     5    1
    29     5     6    1
    30     6     7   ar
    31     7     8   ar
    32     8     9   ar
    33     9    10   ar
    34    10    11   ar
    35    25    26    1
    36    26    27    1
    37    27    21    1
    38    38    29    1
    39    11     2    1
    40    36    31   ar
    41    11     6   ar
    42    18    19    1
    43    38    39    1
@<TRIPOS>MOLECULE
*****
 39 43 0 0 0
SMALL
GASTEIGER

@<TRIPOS>ATOM
      1 N          63.5054   88.9403   13.6426 N.3     1  UNL1       -0.2679
      2 C          63.0579   89.2852   12.2531 C.3     1  UNL1        0.0978
      3 C          63.2543   90.6754   11.7253 C.3     1  UNL1        0.0224
      4 C          62.8068   91.0203   10.3357 C.3     1  UNL1        0.0065
      5 C          62.1629   89.9750    9.4740 C.3     1  UNL1        0.0277
      6 C          61.9664   88.5848   10.0019 C.ar    1  UNL1       -0.0073
      7 C          61.3224   87.5394    9.1402 C.ar    1  UNL1       -0.0015
      8 C          61.1260   86.1491    9.6680 C.ar    1  UNL1        0.0203
      9 C          61.5735   85.8042   11.0575 C.ar    1  UNL1        0.0985
     10 N          62.2175   86.8496   11.9192 N.ar    1  UNL1       -0.2471
     11 C          62.4139   88.2399   11.3914 C.ar    1  UNL1        0.0695
     12 C          64.1297   87.6049   13.9197 C.3     1  UNL1        0.0725
     13 C          64.1732   87.0737   15.3219 C.3     1  UNL1        0.0187
     14 C          63.9074   85.6206   15.5820 C.3     1  UNL1        0.0158
     15 C          62.8437   85.9924   16.5722 C.3     1  UNL1        0.0014
     16 C          64.9710   85.2488   14.5919 C.3     1  UNL1        0.0014
     17 C          63.6416   84.1675   15.8422 C.3     1  UNL1        0.0685
     18 N          62.4253   83.5113   15.2589 N.3     1  UNL1       -0.2985
     19 H          61.9993   82.9635   16.0064 H       1  UNL1        0.1232
     20 C          63.1994   80.8232   10.2572 C.3     1  UNL1        0.0000
     21 C          62.8291   80.7741   11.7099 C.3     1  UNL1        0.0001
     22 C          62.6649   79.3272   11.3502 C.3     1  UNL1        0.0000
     23 C          62.4017   80.2225   13.0377 C.3     1  UNL1        0.0014
     24 C          62.2671   81.1349   14.2207 C.3     1  UNL1        0.0157
     25 C          62.5599   82.5989   14.0759 C.3     1  UNL1        0.0540
     26 C          62.9873   83.1505   12.7481 C.3     1  UNL1        0.0157
     27 C          63.1219   82.2382   11.5651 C.3     1  UNL1        0.0014
     28 C          63.3287   89.9309   14.7550 C.3     1  UNL1        0.0886
     29 C          64.4616   90.8349   15.1414 C.3     1  UNL1        0.0748
     30 C          65.7515   90.7894   14.3772 C.3     1  UNL1        0.0432
     31 C          66.8845   91.6935   14.7636 C.ar    1  UNL1       -0.0234
     32 C          68.1744   91.6480   13.9994 C.ar    1  UNL1       -0.0045
     33 C          69.3073   92.5520   14.3858 C.ar    1  UNL1       -0.0003
     34 C          69.1502   93.5014   15.5364 C.ar    1  UNL1       -0.0003
     35 C          67.8603   93.5469   16.3006 C.ar    1  UNL1       -0.0032
     36 C          66.7275   92.6429   15.9142 C.ar    1  UNL1       -0.0103
     37 C          65.4375   92.6883   16.6784 C.3     1  UNL1        0.0953
     38 N          64.3046   91.7843   16.2920 N.3     1  UNL1       -0.2934
     39 H          63.5104   92.3853   16.0717 H       1  UNL1        0.1236
@<TRIPOS>BOND
     1    20    21    1
     2    21    22    1
     3    21    23    1
     4    23    24    1
     5    24    25    1
     6    25    18    1
     7    18    17    1
     8    17    14    1
     9    14    15    1
    10    14    16    1
    11    14    13    1
    12    13    12    1
    13    12     1    1
    14     1    28    1
    15    29    28    1
    16    29    30    1
    17    30    31    1
    18    31    32   ar
    19    32    33   ar
    20    33    34   ar
    21    34    35   ar
    22    35    36   ar
    23    36    37    1
    24    37    38    1
    25     2     1    1
    26     2     3    1
    27     3     4    1
    28     4     5    1
    29     5     6    1
    30     6     7   ar
    31     7     8   ar
    32     8     9   ar
    33     9    10   ar
    34    10    11   ar
    35    25    26    1
    36    26    27    1
    37    27    21    1
    38    38    29    1
    39    11     2    1
    40    36    31   ar
    41    11     6   ar
    42    18    19    1
    43    38    39    1
@<TRIPOS>MOLECULE
*****
 39 43 0 0 0
SMALL
GASTEIGER

@<TRIPOS>ATOM
      1 N          63.9592   90.0464   13.5897 N.3     1  UNL1       -0.2679
      2 C          64.4151   90.8923   14.7416 C.3     1  UNL1        0.0978
      3 C          63.5124   91.1029   15.9209 C.3     1  UNL1        0.0224
      4 C          63.9683   91.9488   17.0727 C.3     1  UNL1        0.0065
      5 C          65.3269   92.5840   17.0452 C.3     1  UNL1        0.0277
      6 C          66.2295   92.3734   15.8659 C.ar    1  UNL1       -0.0073
      7 C          67.5882   93.0086   15.8383 C.ar    1  UNL1       -0.0015
      8 C          68.4908   92.7979   14.6590 C.ar    1  UNL1        0.0203
      9 C          68.0349   91.9521   13.5072 C.ar    1  UNL1        0.0985
     10 N          66.6763   91.3169   13.5347 N.ar    1  UNL1       -0.2471
     11 C          65.7736   91.5275   14.7141 C.ar    1  UNL1        0.0695
     12 C          63.9479   88.5518   13.7151 C.3     1  UNL1        0.0725
     13 C          64.6399   87.8908   14.8703 C.3     1  UNL1        0.0187
     14 C          64.0544   86.6558   15.4883 C.3     1  UNL1        0.0158
     15 C          63.0817   87.5012   16.2559 C.3     1  UNL1        0.0014
     16 C          65.0271   85.8105   14.7207 C.3     1  UNL1        0.0014
     17 C          63.4688   85.4209   16.1064 C.3     1  UNL1        0.0685
     18 N          62.2709   84.7667   15.4844 N.3     1  UNL1       -0.2985
     19 H          61.7711   84.2920   16.2362 H       1  UNL1        0.1232
     20 C          63.1487   81.7032   10.7213 C.3     1  UNL1        0.0000
     21 C          62.8114   81.7581   12.1818 C.3     1  UNL1        0.0001
     22 C          62.7501   80.2765   11.9558 C.3     1  UNL1        0.0000
     23 C          62.4528   81.2983   13.5639 C.3     1  UNL1        0.0014
     24 C          62.2726   82.3012   14.6647 C.3     1  UNL1        0.0157
     25 C          62.4511   83.7638   14.3835 C.3     1  UNL1        0.0540
     26 C          62.8097   84.2235   13.0015 C.3     1  UNL1        0.0157
     27 C          62.9899   83.2207   11.9006 C.3     1  UNL1        0.0014
     28 C          63.5145   90.6953   12.3126 C.3     1  UNL1        0.0886
     29 C          62.4961   90.0194   11.4429 C.3     1  UNL1        0.0748
     30 C          62.8292   88.7224   10.7672 C.3     1  UNL1        0.0432
     31 C          61.8108   88.0465    9.8976 C.ar    1  UNL1       -0.0234
     32 C          62.1439   86.7494    9.2219 C.ar    1  UNL1       -0.0045
     33 C          61.1255   86.0737    8.3523 C.ar    1  UNL1       -0.0003
     34 C          59.7740   86.6949    8.1585 C.ar    1  UNL1       -0.0003
     35 C          59.4409   87.9920    8.8342 C.ar    1  UNL1       -0.0032
     36 C          60.4593   88.6678    9.7037 C.ar    1  UNL1       -0.0103
     37 C          60.1262   89.9649   10.3795 C.3     1  UNL1        0.0953
     38 N          61.1446   90.6407   11.2491 N.3     1  UNL1       -0.2934
     39 H          60.7269   90.7320   12.1752 H       1  UNL1        0.1236
@<TRIPOS>BOND
     1    20    21    1
     2    21    22    1
     3    21    23    1
     4    23    24    1
     5    24    25    1
     6    25    18    1
     7    18    17    1
     8    17    14    1
     9    14    15    1
    10    14    16    1
    11    14    13    1
    12    13    12    1
    13    12     1    1
    14     1    28    1
    15    29    28    1
    16    29    30    1
    17    30    31    1
    18    31    32   ar
    19    32    33   ar
    20    33    34   ar
    21    34    35   ar
    22    35    36   ar
    23    36    37    1
    24    37    38    1
    25     2     1    1
    26     2     3    1
    27     3     4    1
    28     4     5    1
    29     5     6    1
    30     6     7   ar
    31     7     8   ar
    32     8     9   ar
    33     9    10   ar
    34    10    11   ar
    35    25    26    1
    36    26    27    1
    37    27    21    1
    38    38    29    1
    39    11     2    1
    40    36    31   ar
    41    11     6   ar
    42    18    19    1
    43    38    39    1
@<TRIPOS>MOLECULE
*****
 39 43 0 0 0
SMALL
GASTEIGER

@<TRIPOS>ATOM
      1 N          64.1073   90.5537   14.2820 N.3     1  UNL1       -0.2679
      2 C          65.1210   91.6592   14.2950 C.3     1  UNL1        0.0978
      3 C          65.8449   91.9980   15.5643 C.3     1  UNL1        0.0224
      4 C          66.8587   93.1035   15.5773 C.3     1  UNL1        0.0065
      5 C          67.1485   93.8702   14.3211 C.3     1  UNL1        0.0277
      6 C          66.4246   93.5313   13.0518 C.ar    1  UNL1       -0.0073
      7 C          66.7144   94.2980   11.7955 C.ar    1  UNL1       -0.0015
      8 C          65.9905   93.9592   10.5262 C.ar    1  UNL1        0.0203
      9 C          64.9767   92.8537   10.5132 C.ar    1  UNL1        0.0985
     10 N          64.6869   92.0870   11.7694 N.ar    1  UNL1       -0.2471
     11 C          65.4108   92.4258   13.0388 C.ar    1  UNL1        0.0695
     12 C          63.5784   90.0364   12.9772 C.3     1  UNL1        0.0725
     13 C          62.0987   89.9754   12.7389 C.3     1  UNL1        0.0187
     14 C          61.5715   89.6959   11.3627 C.3     1  UNL1        0.0158
     15 C          62.9751   89.6383   10.8368 C.3     1  UNL1        0.0014
     16 C          60.1680   89.7535   11.8887 C.3     1  UNL1        0.0014
     17 C          61.0443   89.4163    9.9866 C.3     1  UNL1        0.0685
     18 N          60.5008   88.0586    9.6531 N.3     1  UNL1       -0.2985
     19 H          59.6529   87.9368   10.2068 H       1  UNL1        0.1232
     20 C          63.3543   83.4074   11.4039 C.3     1  UNL1        0.0000
     21 C          63.0280   84.3962   10.3242 C.3     1  UNL1        0.0001
     22 C          63.9924   83.5147    9.5873 C.3     1  UNL1        0.0000
     23 C          63.0366   85.0789    8.9886 C.3     1  UNL1        0.0014
     24 C          62.1942   86.2997    8.7649 C.3     1  UNL1        0.0157
     25 C          61.3432   86.8378    9.8768 C.3     1  UNL1        0.0540
     26 C          61.3346   86.1550   11.2124 C.3     1  UNL1        0.0157
     27 C          62.1770   84.9343   11.4361 C.3     1  UNL1        0.0014
     28 C          63.6224   89.9655   15.5739 C.3     1  UNL1        0.0886
     29 C          63.5276   88.4767   15.7313 C.3     1  UNL1        0.0748
     30 C          64.3003   87.5749   14.8150 C.3     1  UNL1        0.0432
     31 C          64.2055   86.0862   14.9725 C.ar    1  UNL1       -0.0234
     32 C          64.9782   85.1844   14.0562 C.ar    1  UNL1       -0.0045
     33 C          64.8834   83.6957   14.2136 C.ar    1  UNL1       -0.0003
     34 C          64.0158   83.1089   15.2874 C.ar    1  UNL1       -0.0003
     35 C          63.2431   84.0107   16.2037 C.ar    1  UNL1       -0.0032
     36 C          63.3379   85.4993   16.0462 C.ar    1  UNL1       -0.0103
     37 C          62.5652   86.4012   16.9625 C.3     1  UNL1        0.0953
     38 N          62.6600   87.8899   16.8050 N.3     1  UNL1       -0.2934
     39 H          63.0003   88.2588   17.6930 H       1  UNL1        0.1236
@<TRIPOS>BOND
     1    20    21    1
     2    21    22    1
     3    21    23    1
     4    23    24    1
     5    24    25    1
     6    25    18    1
     7    18    17    1
     8    17    14    1
     9    14    15    1
    10    14    16    1
    11    14    13    1
    12    13    12    1
    13    12     1    1
    14     1    28    1
    15    29    28    1
    16    29    30    1
    17    30    31    1
    18    31    32   ar
    19    32    33   ar
    20    33    34   ar
    21    34    35   ar
    22    35    36   ar
    23    36    37    1
    24    37    38    1
    25     2     1    1
    26     2     3    1
    27     3     4    1
    28     4     5    1
    29     5     6    1
    30     6     7   ar
    31     7     8   ar
    32     8     9   ar
    33     9    10   ar
    34    10    11   ar
    35    25    26    1
    36    26    27    1
    37    27    21    1
    38    38    29    1
    39    11     2    1
    40    36    31   ar
    41    11     6   ar
    42    18    19    1
    43    38    39    1
@<TRIPOS>MOLECULE
*****
 39 43 0 0 0
SMALL
GASTEIGER

@<TRIPOS>ATOM
      1 N          64.2615   89.9664   13.5250 N.3     1  UNL1       -0.2679
      2 C          65.0630   91.1862   13.8709 C.3     1  UNL1        0.0978
      3 C          65.5427   91.3947   15.2767 C.3     1  UNL1        0.0224
      4 C          66.3441   92.6145   15.6227 C.3     1  UNL1        0.0065
      5 C          66.6659   93.6259   14.5627 C.3     1  UNL1        0.0277
      6 C          66.1862   93.4175   13.1569 C.ar    1  UNL1       -0.0073
      7 C          66.5079   94.4289   12.0969 C.ar    1  UNL1       -0.0015
      8 C          66.0282   94.2205   10.6911 C.ar    1  UNL1        0.0203
      9 C          65.2268   93.0007   10.3452 C.ar    1  UNL1        0.0985
     10 N          64.9050   91.9893   11.4051 N.ar    1  UNL1       -0.2471
     11 C          65.3847   92.1977   12.8110 C.ar    1  UNL1        0.0695
     12 C          63.4300   89.9444   12.2768 C.3     1  UNL1        0.0725
     13 C          61.9967   90.3844   12.3226 C.3     1  UNL1        0.0187
     14 C          61.0741   90.0539   11.1870 C.3     1  UNL1        0.0158
     15 C          59.9919   89.7090   12.1667 C.3     1  UNL1        0.0014
     16 C          62.1563   90.3987   10.2073 C.3     1  UNL1        0.0014
     17 C          60.1515   89.7233   10.0515 C.3     1  UNL1        0.0685
     18 N          59.5836   88.3408    9.9245 N.3     1  UNL1       -0.2985
     19 H          59.5349   87.9548   10.8674 H       1  UNL1        0.1232
     20 C          61.3916   84.3627    6.2168 C.3     1  UNL1        0.0000
     21 C          61.6699   85.2771    7.3728 C.3     1  UNL1        0.0001
     22 C          63.0136   84.6268    7.2257 C.3     1  UNL1        0.0000
     23 C          62.4149   85.9656    8.4777 C.3     1  UNL1        0.0014
     24 C          61.7194   86.9869    9.3283 C.3     1  UNL1        0.0157
     25 C          60.2791   87.3195    9.0739 C.3     1  UNL1        0.0540
     26 C          59.5341   86.6310    7.9690 C.3     1  UNL1        0.0157
     27 C          60.2295   85.6097    7.1184 C.3     1  UNL1        0.0014
     28 C          64.2916   88.7685   14.4273 C.3     1  UNL1        0.0886
     29 C          63.9016   87.4204   13.8975 C.3     1  UNL1        0.0748
     30 C          64.2423   86.1826   14.6730 C.3     1  UNL1        0.0432
     31 C          63.8523   84.8345   14.1432 C.ar    1  UNL1       -0.0234
     32 C          64.1929   83.5966   14.9187 C.ar    1  UNL1       -0.0045
     33 C          63.8030   82.2486   14.3889 C.ar    1  UNL1       -0.0003
     34 C          63.0723   82.1385   13.0835 C.ar    1  UNL1       -0.0003
     35 C          62.7317   83.3764   12.3079 C.ar    1  UNL1       -0.0032
     36 C          63.1216   84.7244   12.8378 C.ar    1  UNL1       -0.0103
     37 C          62.7810   85.9624   12.0622 C.3     1  UNL1        0.0953
     38 N          63.1710   87.3103   12.5921 N.3     1  UNL1       -0.2934
     39 H          62.3101   87.8485   12.6902 H       1  UNL1        0.1236
@<TRIPOS>BOND
     1    20    21    1
     2    21    22    1
     3    21    23    1
     4    23    24    1
     5    24    25    1
     6    25    18    1
     7    18    17    1
     8    17    14    1
     9    14    15    1
    10    14    16    1
    11    14    13    1
    12    13    12    1
    13    12     1    1
    14     1    28    1
    15    29    28    1
    16    29    30    1
    17    30    31    1
    18    31    32   ar
    19    32    33   ar
    20    33    34   ar
    21    34    35   ar
    22    35    36   ar
    23    36    37    1
    24    37    38    1
    25     2     1    1
    26     2     3    1
    27     3     4    1
    28     4     5    1
    29     5     6    1
    30     6     7   ar
    31     7     8   ar
    32     8     9   ar
    33     9    10   ar
    34    10    11   ar
    35    25    26    1
    36    26    27    1
    37    27    21    1
    38    38    29    1
    39    11     2    1
    40    36    31   ar
    41    11     6   ar
    42    18    19    1
    43    38    39    1
@<TRIPOS>MOLECULE
*****
 39 43 0 0 0
SMALL
GASTEIGER

@<TRIPOS>ATOM
      1 N          63.9061   90.7181   13.3749 N.3     1  UNL1       -0.2679
      2 C          64.8073   91.8495   12.9779 C.3     1  UNL1        0.0978
      3 C          64.7294   92.4198   11.5928 C.3     1  UNL1        0.0224
      4 C          65.6307   93.5513   11.1957 C.3     1  UNL1        0.0065
      5 C          66.6098   94.1124   12.1839 C.3     1  UNL1        0.0277
      6 C          66.6877   93.5420   13.5690 C.ar    1  UNL1       -0.0073
      7 C          67.6669   94.1031   14.5572 C.ar    1  UNL1       -0.0015
      8 C          67.7448   93.5328   15.9423 C.ar    1  UNL1        0.0203
      9 C          66.8435   92.4013   16.3393 C.ar    1  UNL1        0.0985
     10 N          65.8644   91.8402   15.3512 N.ar    1  UNL1       -0.2471
     11 C          65.7865   92.4106   13.9660 C.ar    1  UNL1        0.0695
     12 C          63.2235   89.8977   12.3209 C.3     1  UNL1        0.0725
     13 C          61.8102   90.2091   11.9264 C.3     1  UNL1        0.0187
     14 C          61.2698   89.7123   10.6183 C.3     1  UNL1        0.0158
     15 C          59.8895   89.6712   11.2041 C.3     1  UNL1        0.0014
     16 C          62.6500   89.7534   10.0325 C.3     1  UNL1        0.0014
     17 C          60.7294   89.2155    9.3102 C.3     1  UNL1        0.0685
     18 N          60.2712   87.7932    9.1797 N.3     1  UNL1       -0.2985
     19 H          59.4421   87.6959    9.7658 H       1  UNL1        0.1232
     20 C          64.0656   83.5247    9.6540 C.3     1  UNL1        0.0000
     21 C          63.0447   84.4256   10.2833 C.3     1  UNL1        0.0001
     22 C          63.4400   83.6067   11.4762 C.3     1  UNL1        0.0000
     23 C          62.1610   85.0420   11.3269 C.3     1  UNL1        0.0014
     24 C          61.2365   86.1646   10.9590 C.3     1  UNL1        0.0157
     25 C          61.1957   86.6706    9.5476 C.3     1  UNL1        0.0540
     26 C          62.0794   86.0541    8.5040 C.3     1  UNL1        0.0157
     27 C          63.0038   84.9316    8.8718 C.3     1  UNL1        0.0014
     28 C          63.6874   90.4070   14.8259 C.3     1  UNL1        0.0886
     29 C          63.6146   88.9807   15.2845 C.3     1  UNL1        0.0748
     30 C          64.2495   87.8962   14.4656 C.3     1  UNL1        0.0432
     31 C          64.1767   86.4698   14.9242 C.ar    1  UNL1       -0.0234
     32 C          64.8116   85.3853   14.1052 C.ar    1  UNL1       -0.0045
     33 C          64.7388   83.9591   14.5639 C.ar    1  UNL1       -0.0003
     34 C          64.0310   83.6173   15.8415 C.ar    1  UNL1       -0.0003
     35 C          63.3961   84.7018   16.6605 C.ar    1  UNL1       -0.0032
     36 C          63.4690   86.1281   16.2018 C.ar    1  UNL1       -0.0103
     37 C          62.8340   87.2126   17.0208 C.3     1  UNL1        0.0953
     38 N          62.9069   88.6389   16.5621 N.3     1  UNL1       -0.2934
     39 H          63.3695   89.1637   17.3044 H       1  UNL1        0.1236
@<TRIPOS>BOND
     1    20    21    1
     2    21    22    1
     3    21    23    1
     4    23    24    1
     5    24    25    1
     6    25    18    1
     7    18    17    1
     8    17    14    1
     9    14    15    1
    10    14    16    1
    11    14    13    1
    12    13    12    1
    13    12     1    1
    14     1    28    1
    15    29    28    1
    16    29    30    1
    17    30    31    1
    18    31    32   ar
    19    32    33   ar
    20    33    34   ar
    21    34    35   ar
    22    35    36   ar
    23    36    37    1
    24    37    38    1
    25     2     1    1
    26     2     3    1
    27     3     4    1
    28     4     5    1
    29     5     6    1
    30     6     7   ar
    31     7     8   ar
    32     8     9   ar
    33     9    10   ar
    34    10    11   ar
    35    25    26    1
    36    26    27    1
    37    27    21    1
    38    38    29    1
    39    11     2    1
    40    36    31   ar
    41    11     6   ar
    42    18    19    1
    43    38    39    1
@<TRIPOS>MOLECULE
*****
 39 43 0 0 0
SMALL
GASTEIGER

@<TRIPOS>ATOM
      1 N          64.4217   90.7763   13.2537 N.3     1  UNL1       -0.2679
      2 C          64.0178   90.1976   14.5773 C.3     1  UNL1        0.0978
      3 C          63.6895   91.1064   15.7245 C.3     1  UNL1        0.0224
      4 C          63.2855   90.5277   17.0481 C.3     1  UNL1        0.0065
      5 C          63.2099   89.0400   17.2244 C.3     1  UNL1        0.0277
      6 C          63.5382   88.1312   16.0772 C.ar    1  UNL1       -0.0073
      7 C          63.4625   86.6434   16.2536 C.ar    1  UNL1       -0.0015
      8 C          63.7908   85.7346   15.1064 C.ar    1  UNL1        0.0203
      9 C          64.1948   86.3133   13.7828 C.ar    1  UNL1        0.0985
     10 N          64.2704   87.8010   13.6064 N.ar    1  UNL1       -0.2471
     11 C          63.9421   88.7099   14.7537 C.ar    1  UNL1        0.0695
     12 C          63.4182   90.8828   12.1440 C.3     1  UNL1        0.0725
     13 C          62.1310   90.1162   12.2207 C.3     1  UNL1        0.0187
     14 C          61.4722   89.6291   10.9642 C.3     1  UNL1        0.0158
     15 C          60.1756   89.4773   11.7030 C.3     1  UNL1        0.0014
     16 C          62.7688   89.7809   10.2255 C.3     1  UNL1        0.0014
     17 C          60.8134   89.1420    9.7078 C.3     1  UNL1        0.0685
     18 N          60.3307   87.7249    9.6149 N.3     1  UNL1       -0.2985
     19 H          59.5593   87.6326   10.2758 H       1  UNL1        0.1232
     20 C          64.1674   83.4694    9.7286 C.3     1  UNL1        0.0000
     21 C          63.1614   84.3252   10.4396 C.3     1  UNL1        0.0001
     22 C          63.6010   83.4449   11.5718 C.3     1  UNL1        0.0000
     23 C          62.3081   84.8753   11.5438 C.3     1  UNL1        0.0014
     24 C          61.3645   86.0085   11.2689 C.3     1  UNL1        0.0157
     25 C          61.2743   86.5916    9.8898 C.3     1  UNL1        0.0540
     26 C          62.1276   86.0415    8.7856 C.3     1  UNL1        0.0157
     27 C          63.0711   84.9083    9.0605 C.3     1  UNL1        0.0014
     28 C          65.8292   91.2487   13.0399 C.3     1  UNL1        0.0886
     29 C          66.0847   92.5620   12.3615 C.3     1  UNL1        0.0748
     30 C          66.5494   92.5917   10.9357 C.3     1  UNL1        0.0432
     31 C          66.8049   93.9050   10.2573 C.ar    1  UNL1       -0.0234
     32 C          67.2696   93.9348    8.8315 C.ar    1  UNL1       -0.0045
     33 C          67.5251   95.2480    8.1532 C.ar    1  UNL1       -0.0003
     34 C          67.3159   96.5315    8.9008 C.ar    1  UNL1       -0.0003
     35 C          66.8511   96.5018   10.3266 C.ar    1  UNL1       -0.0032
     36 C          66.5957   95.1885   11.0049 C.ar    1  UNL1       -0.0103
     37 C          66.1309   95.1587   12.4308 C.3     1  UNL1        0.0953
     38 N          65.8754   93.8455   13.1091 N.3     1  UNL1       -0.2934
     39 H          64.9013   93.8548   13.4113 H       1  UNL1        0.1236
@<TRIPOS>BOND
     1    20    21    1
     2    21    22    1
     3    21    23    1
     4    23    24    1
     5    24    25    1
     6    25    18    1
     7    18    17    1
     8    17    14    1
     9    14    15    1
    10    14    16    1
    11    14    13    1
    12    13    12    1
    13    12     1    1
    14     1    28    1
    15    29    28    1
    16    29    30    1
    17    30    31    1
    18    31    32   ar
    19    32    33   ar
    20    33    34   ar
    21    34    35   ar
    22    35    36   ar
    23    36    37    1
    24    37    38    1
    25     2     1    1
    26     2     3    1
    27     3     4    1
    28     4     5    1
    29     5     6    1
    30     6     7   ar
    31     7     8   ar
    32     8     9   ar
    33     9    10   ar
    34    10    11   ar
    35    25    26    1
    36    26    27    1
    37    27    21    1
    38    38    29    1
    39    11     2    1
    40    36    31   ar
    41    11     6   ar
    42    18    19    1
    43    38    39    1
@<TRIPOS>MOLECULE
*****
 39 43 0 0 0
SMALL
GASTEIGER

@<TRIPOS>ATOM
      1 N          62.3032   87.3780   11.0743 N.3     1  UNL1       -0.2679
      2 C          61.2451   87.1898   10.0279 C.3     1  UNL1        0.0978
      3 C          59.9205   87.8794   10.1681 C.3     1  UNL1        0.0224
      4 C          58.8624   87.6912    9.1216 C.3     1  UNL1        0.0065
      5 C          59.1290   86.8133    7.9350 C.3     1  UNL1        0.0277
      6 C          60.4536   86.1237    7.7947 C.ar    1  UNL1       -0.0073
      7 C          60.7203   85.2458    6.6080 C.ar    1  UNL1       -0.0015
      8 C          62.0449   84.5562    6.4678 C.ar    1  UNL1        0.0203
      9 C          63.1030   84.7444    7.5142 C.ar    1  UNL1        0.0985
     10 N          62.8364   85.6223    8.7009 N.ar    1  UNL1       -0.2471
     11 C          61.5117   86.3119    8.8412 C.ar    1  UNL1        0.0695
     12 C          62.3320   88.6336   11.8944 C.3     1  UNL1        0.0725
     13 C          63.4789   88.8955   12.8251 C.3     1  UNL1        0.0187
     14 C          63.9784   90.2957   13.0244 C.3     1  UNL1        0.0158
     15 C          64.6287   89.8806   14.3108 C.3     1  UNL1        0.0014
     16 C          63.3282   90.7107   11.7380 C.3     1  UNL1        0.0014
     17 C          64.4780   91.6959   13.2237 C.3     1  UNL1        0.0685
     18 N          65.9265   92.0145   12.9990 N.3     1  UNL1       -0.2985
     19 H          66.2827   92.3984   13.8743 H       1  UNL1        0.1232
     20 C          67.1449   96.3537    9.4594 C.3     1  UNL1        0.0000
     21 C          67.1209   94.8808    9.7419 C.3     1  UNL1        0.0001
     22 C          67.7068   94.8715    8.3611 C.3     1  UNL1        0.0000
     23 C          67.3004   93.4046    9.5450 C.3     1  UNL1        0.0014
     24 C          66.9022   92.4492   10.6307 C.3     1  UNL1        0.0157
     25 C          66.3246   92.9699   11.9133 C.3     1  UNL1        0.0540
     26 C          66.1451   94.4461   12.1103 C.3     1  UNL1        0.0157
     27 C          66.5432   95.4015   11.0246 C.3     1  UNL1        0.0014
     28 C          63.3325   86.3107   11.3007 C.3     1  UNL1        0.0886
     29 C          62.9760   85.0776   12.0769 C.3     1  UNL1        0.0748
     30 C          63.1135   83.7257   11.4417 C.3     1  UNL1        0.0432
     31 C          62.7571   82.4925   12.2180 C.ar    1  UNL1       -0.0234
     32 C          62.8945   81.1407   11.5828 C.ar    1  UNL1       -0.0045
     33 C          62.5381   79.9076   12.3590 C.ar    1  UNL1       -0.0003
     34 C          62.0442   80.0265   13.7704 C.ar    1  UNL1       -0.0003
     35 C          61.9068   81.3784   14.4056 C.ar    1  UNL1       -0.0032
     36 C          62.2632   82.6114   13.6293 C.ar    1  UNL1       -0.0103
     37 C          62.1258   83.9634   14.2645 C.3     1  UNL1        0.0953
     38 N          62.4822   85.1964   13.4883 N.3     1  UNL1       -0.2934
     39 H          63.2115   85.6760   14.0160 H       1  UNL1        0.1236
@<TRIPOS>BOND
     1    20    21    1
     2    21    22    1
     3    21    23    1
     4    23    24    1
     5    24    25    1
     6    25    18    1
     7    18    17    1
     8    17    14    1
     9    14    15    1
    10    14    16    1
    11    14    13    1
    12    13    12    1
    13    12     1    1
    14     1    28    1
    15    29    28    1
    16    29    30    1
    17    30    31    1
    18    31    32   ar
    19    32    33   ar
    20    33    34   ar
    21    34    35   ar
    22    35    36   ar
    23    36    37    1
    24    37    38    1
    25     2     1    1
    26     2     3    1
    27     3     4    1
    28     4     5    1
    29     5     6    1
    30     6     7   ar
    31     7     8   ar
    32     8     9   ar
    33     9    10   ar
    34    10    11   ar
    35    25    26    1
    36    26    27    1
    37    27    21    1
    38    38    29    1
    39    11     2    1
    40    36    31   ar
    41    11     6   ar
    42    18    19    1
    43    38    39    1
