@<TRIPOS>MOLECULE
*****
 23 25 0 0 0
SMALL
GASTEIGER

@<TRIPOS>ATOM
      1 C          64.0148   88.6303   14.9784 C.ar    1  UNL1        0.0218
      2 C          63.2779   88.8305   16.2695 C.ar    1  UNL1        0.0989
      3 N          62.9289   87.6487   17.1249 N.ar    1  UNL1       -0.2426
      4 C          63.3169   86.2668   16.6892 C.ar    1  UNL1        0.0959
      5 C          64.0538   86.0666   15.3981 C.ar    1  UNL1        0.0128
      6 C          64.4028   87.2485   14.5428 C.ar    1  UNL1        0.0003
      7 C          63.5581   90.1125   12.8941 C.ar    1  UNL1        0.1409
      8 C          63.9071   91.2943   12.0388 C.ar    1  UNL1        0.0665
      9 C          65.0618   92.1757   12.4125 C.ar    1  UNL1        0.1432
     10 F          65.4108   93.3575   11.5571 F       1  UNL1       -0.2041
     11 C          65.8676   91.8753   13.6415 C.ar    1  UNL1        0.0298
     12 C          65.5186   90.6935   14.4968 C.ar    1  UNL1        0.0054
     13 C          64.3638   89.8121   14.1231 C.ar    1  UNL1        0.0356
     14 C          62.4265   88.4731   11.2262 C.3     1  UNL1        0.2525
     15 O          62.4033   89.2311   12.5204 O.3     1  UNL1       -0.4714
     16 C          64.4418   84.6848   14.9624 C.3     1  UNL1        0.0971
     17 N          63.4756   83.8464   14.1792 N.3     1  UNL1       -0.2948
     18 H          62.5403   84.1803   14.4118 H       1  UNL1        0.1235
     19 C          63.5608   83.8050   12.6821 C.3     1  UNL1        0.0542
     20 C          64.4291   82.8873   11.8735 C.3     1  UNL1        0.0157
     21 C          64.1976   83.1891   10.4225 C.3     1  UNL1        0.0014
     22 C          63.1862   84.2934   10.3344 C.3     1  UNL1        0.0014
     23 C          62.7926   84.6740   11.7309 C.3     1  UNL1        0.0157
@<TRIPOS>BOND
     1    14    15    1
     2    15     7    1
     3     7     8   ar
     4     8     9   ar
     5     9    10    1
     6     9    11   ar
     7    11    12   ar
     8    12    13   ar
     9    13     1    1
    10     1     2   ar
    11     2     3   ar
    12     3     4   ar
    13     4     5   ar
    14     5    16    1
    15    16    17    1
    16    17    19    1
    17    19    20    1
    18    20    21    1
    19    21    22    1
    20    22    23    1
    21     5     6   ar
    22    13     7   ar
    23     6     1   ar
    24    23    19    1
    25    17    18    1
@<TRIPOS>MOLECULE
*****
 23 25 0 0 0
SMALL
GASTEIGER

@<TRIPOS>ATOM
      1 C          62.7722   84.9754   10.8462 C.ar    1  UNL1        0.0218
      2 C          63.6588   84.0810   10.0313 C.ar    1  UNL1        0.0989
      3 N          64.4515   82.9982   10.7016 N.ar    1  UNL1       -0.2426
      4 C          64.3575   82.8098   12.1868 C.ar    1  UNL1        0.0959
      5 C          63.4708   83.7042   13.0017 C.ar    1  UNL1        0.0128
      6 C          62.6782   84.7870   12.3313 C.ar    1  UNL1        0.0003
      7 C          62.0141   87.4570   10.7161 C.ar    1  UNL1        0.1409
      8 C          61.2215   88.5397   10.0457 C.ar    1  UNL1        0.0665
      9 C          60.3943   88.2236    8.8350 C.ar    1  UNL1        0.1432
     10 F          59.6016   89.3064    8.1646 F       1  UNL1       -0.2041
     11 C          60.3597   86.8247    8.2947 C.ar    1  UNL1        0.0298
     12 C          61.1524   85.7420    8.9651 C.ar    1  UNL1        0.0054
     13 C          61.9795   86.0582   10.1758 C.ar    1  UNL1        0.0356
     14 C          63.1772   89.1978   12.2545 C.3     1  UNL1        0.2525
     15 O          62.8413   87.7731   11.9268 O.3     1  UNL1       -0.4714
     16 C          63.3768   83.5158   14.4868 C.3     1  UNL1        0.0971
     17 N          64.2796   84.2912   15.3997 N.3     1  UNL1       -0.2948
     18 H          65.1943   84.3258   14.9496 H       1  UNL1        0.1235
     19 C          63.9309   85.6996   15.7807 C.3     1  UNL1        0.0542
     20 C          64.3026   86.9369   15.0184 C.3     1  UNL1        0.0157
     21 C          63.7508   88.1199   15.7573 C.3     1  UNL1        0.0014
     22 C          63.0381   87.6137   16.9763 C.3     1  UNL1        0.0014
     23 C          63.1494   86.1179   16.9907 C.3     1  UNL1        0.0157
@<TRIPOS>BOND
     1    14    15    1
     2    15     7    1
     3     7     8   ar
     4     8     9   ar
     5     9    10    1
     6     9    11   ar
     7    11    12   ar
     8    12    13   ar
     9    13     1    1
    10     1     2   ar
    11     2     3   ar
    12     3     4   ar
    13     4     5   ar
    14     5    16    1
    15    16    17    1
    16    17    19    1
    17    19    20    1
    18    20    21    1
    19    21    22    1
    20    22    23    1
    21     5     6   ar
    22    13     7   ar
    23     6     1   ar
    24    23    19    1
    25    17    18    1
@<TRIPOS>MOLECULE
*****
 23 25 0 0 0
SMALL
GASTEIGER

@<TRIPOS>ATOM
      1 C          62.7236   86.9286   11.9809 C.ar    1  UNL1        0.0218
      2 C          63.1899   88.2779   12.4414 C.ar    1  UNL1        0.0989
      3 N          64.0136   88.4013   13.6888 N.ar    1  UNL1       -0.2426
      4 C          64.3712   87.1754   14.4759 C.ar    1  UNL1        0.0959
      5 C          63.9049   85.8261   14.0154 C.ar    1  UNL1        0.0128
      6 C          63.0811   85.7027   12.7679 C.ar    1  UNL1        0.0003
      7 C          60.5521   87.4591   10.6569 C.ar    1  UNL1        0.1409
      8 C          59.7284   87.3357    9.4094 C.ar    1  UNL1        0.0665
      9 C          60.2525   86.5585    8.2384 C.ar    1  UNL1        0.1432
     10 F          59.4287   86.4351    6.9909 F       1  UNL1       -0.2041
     11 C          61.6003   85.9046    8.3149 C.ar    1  UNL1        0.0298
     12 C          62.4240   86.0280    9.5623 C.ar    1  UNL1        0.0054
     13 C          61.8999   86.8052   10.7334 C.ar    1  UNL1        0.0356
     14 C          59.7868   89.7113   11.7017 C.3     1  UNL1        0.2525
     15 O          60.0280   88.2363   11.8279 O.3     1  UNL1       -0.4714
     16 C          64.2624   84.6002   14.8024 C.3     1  UNL1        0.0971
     17 N          64.5381   83.3076   14.0931 N.3     1  UNL1       -0.2948
     18 H          65.3041   82.8554   14.5922 H       1  UNL1        0.1235
     19 C          63.4508   82.2842   13.9494 C.3     1  UNL1        0.0542
     20 C          62.0661   82.3833   14.5174 C.3     1  UNL1        0.0157
     21 C          61.3168   81.1424   14.1316 C.3     1  UNL1        0.0014
     22 C          62.2386   80.2764   13.3251 C.3     1  UNL1        0.0014
     23 C          63.5575   80.9820   13.2126 C.3     1  UNL1        0.0157
@<TRIPOS>BOND
     1    14    15    1
     2    15     7    1
     3     7     8   ar
     4     8     9   ar
     5     9    10    1
     6     9    11   ar
     7    11    12   ar
     8    12    13   ar
     9    13     1    1
    10     1     2   ar
    11     2     3   ar
    12     3     4   ar
    13     4     5   ar
    14     5    16    1
    15    16    17    1
    16    17    19    1
    17    19    20    1
    18    20    21    1
    19    21    22    1
    20    22    23    1
    21     5     6   ar
    22    13     7   ar
    23     6     1   ar
    24    23    19    1
    25    17    18    1
@<TRIPOS>MOLECULE
*****
 23 25 0 0 0
SMALL
GASTEIGER

@<TRIPOS>ATOM
      1 C          62.3089   89.9472   11.3443 C.ar    1  UNL1        0.0218
      2 C          61.0441   90.6172   10.8954 C.ar    1  UNL1        0.0989
      3 N          59.8994   89.7934   10.3848 N.ar    1  UNL1       -0.2426
      4 C          60.0194   88.2994   10.3231 C.ar    1  UNL1        0.0959
      5 C          61.2841   87.6294   10.7720 C.ar    1  UNL1        0.0128
      6 C          62.4289   88.4533   11.2826 C.ar    1  UNL1        0.0003
      7 C          63.8184   90.7286   13.3093 C.ar    1  UNL1        0.1409
      8 C          64.9631   91.5525   13.8198 C.ar    1  UNL1        0.0665
      9 C          65.7431   92.4190   12.8760 C.ar    1  UNL1        0.1432
     10 F          66.8879   93.2430   13.3866 F       1  UNL1       -0.2041
     11 C          65.3784   92.4616   11.4217 C.ar    1  UNL1        0.0298
     12 C          64.2337   91.6377   10.9111 C.ar    1  UNL1        0.0054
     13 C          63.4537   90.7712   11.8549 C.ar    1  UNL1        0.0356
     14 C          63.5208   89.6607   15.6590 C.3     1  UNL1        0.2525
     15 O          63.0384   89.8621   14.2530 O.3     1  UNL1       -0.4714
     16 C          61.4041   86.1355   10.7103 C.3     1  UNL1        0.0971
     17 N          62.0734   85.3901   11.8267 N.3     1  UNL1       -0.2948
     18 H          61.3652   85.2369   12.5446 H       1  UNL1        0.1235
     19 C          62.7160   84.0608   11.5617 C.3     1  UNL1        0.0542
     20 C          62.5987   82.8377   12.4221 C.3     1  UNL1        0.0157
     21 C          63.3988   81.7422   11.7820 C.3     1  UNL1        0.0014
     22 C          64.0106   82.2883   10.5260 C.3     1  UNL1        0.0014
     23 C          63.5886   83.7213   10.3899 C.3     1  UNL1        0.0157
@<TRIPOS>BOND
     1    14    15    1
     2    15     7    1
     3     7     8   ar
     4     8     9   ar
     5     9    10    1
     6     9    11   ar
     7    11    12   ar
     8    12    13   ar
     9    13     1    1
    10     1     2   ar
    11     2     3   ar
    12     3     4   ar
    13     4     5   ar
    14     5    16    1
    15    16    17    1
    16    17    19    1
    17    19    20    1
    18    20    21    1
    19    21    22    1
    20    22    23    1
    21     5     6   ar
    22    13     7   ar
    23     6     1   ar
    24    23    19    1
    25    17    18    1
@<TRIPOS>MOLECULE
*****
 23 25 0 0 0
SMALL
GASTEIGER

@<TRIPOS>ATOM
      1 C          62.7541   89.6638   10.8794 C.ar    1  UNL1        0.0218
      2 C          63.1813   90.9758   10.2911 C.ar    1  UNL1        0.0989
      3 N          64.0350   91.9142   11.0915 N.ar    1  UNL1       -0.2426
      4 C          64.4616   91.5405   12.4802 C.ar    1  UNL1        0.0959
      5 C          64.0344   90.2285   13.0685 C.ar    1  UNL1        0.0128
      6 C          63.1807   89.2901   12.2681 C.ar    1  UNL1        0.0003
      7 C          60.5033   89.1197    9.7014 C.ar    1  UNL1        0.1409
      8 C          59.6496   88.1814    8.9010 C.ar    1  UNL1        0.0665
      9 C          60.1930   86.8487    8.4782 C.ar    1  UNL1        0.1432
     10 F          59.3392   85.9104    7.6778 F       1  UNL1       -0.2041
     11 C          61.5901   86.4544    8.8558 C.ar    1  UNL1        0.0298
     12 C          62.4438   87.3928    9.6562 C.ar    1  UNL1        0.0054
     13 C          61.9004   88.7254   10.0790 C.ar    1  UNL1        0.0356
     14 C          59.3416   90.6140   11.4812 C.3     1  UNL1        0.2525
     15 O          59.9599   90.4524   10.1242 O.3     1  UNL1       -0.4714
     16 C          64.4610   89.8549   14.4571 C.3     1  UNL1        0.0971
     17 N          63.4333   89.4663   15.4783 N.3     1  UNL1       -0.2948
     18 H          62.5202   89.6309   15.0545 H       1  UNL1        0.1235
     19 C          63.4110   88.0701   16.0263 C.3     1  UNL1        0.0542
     20 C          64.0157   86.8593   15.3795 C.3     1  UNL1        0.0157
     21 C          63.7586   85.6805   16.2707 C.3     1  UNL1        0.0014
     22 C          62.9948   86.1627   17.4683 C.3     1  UNL1        0.0014
     23 C          62.7801   87.6396   17.3172 C.3     1  UNL1        0.0157
@<TRIPOS>BOND
     1    14    15    1
     2    15     7    1
     3     7     8   ar
     4     8     9   ar
     5     9    10    1
     6     9    11   ar
     7    11    12   ar
     8    12    13   ar
     9    13     1    1
    10     1     2   ar
    11     2     3   ar
    12     3     4   ar
    13     4     5   ar
    14     5    16    1
    15    16    17    1
    16    17    19    1
    17    19    20    1
    18    20    21    1
    19    21    22    1
    20    22    23    1
    21     5     6   ar
    22    13     7   ar
    23     6     1   ar
    24    23    19    1
    25    17    18    1
@<TRIPOS>MOLECULE
*****
 23 25 0 0 0
SMALL
GASTEIGER

@<TRIPOS>ATOM
      1 C          61.8738   87.1807   11.1181 C.ar    1  UNL1        0.0218
      2 C          60.3803   87.3109   11.1677 C.ar    1  UNL1        0.0989
      3 N          59.7526   88.6444   11.4461 N.ar    1  UNL1       -0.2426
      4 C          60.6184   89.8479   11.6750 C.ar    1  UNL1        0.0959
      5 C          62.1119   89.7176   11.6254 C.ar    1  UNL1        0.0128
      6 C          62.7396   88.3840   11.3470 C.ar    1  UNL1        0.0003
      7 C          62.8166   84.9153   11.9722 C.ar    1  UNL1        0.1409
      8 C          63.4443   83.5817   11.6937 C.ar    1  UNL1        0.0665
      9 C          63.7569   83.1799   10.2828 C.ar    1  UNL1        0.1432
     10 F          64.3846   81.8463   10.0043 F       1  UNL1       -0.2041
     11 C          63.4419   84.1117    9.1503 C.ar    1  UNL1        0.0298
     12 C          62.8142   85.4452    9.4288 C.ar    1  UNL1        0.0054
     13 C          62.5015   85.8470   10.8397 C.ar    1  UNL1        0.0356
     14 C          62.5451   84.2954   14.4806 C.3     1  UNL1        0.2525
     15 O          62.5039   85.3171   13.3831 O.3     1  UNL1       -0.4714
     16 C          62.9777   90.9209   11.8542 C.3     1  UNL1        0.0971
     17 N          63.4220   91.2720   13.2432 N.3     1  UNL1       -0.2948
     18 H          63.1449   90.4969   13.8457 H       1  UNL1        0.1235
     19 C          64.8713   91.5403   13.5218 C.3     1  UNL1        0.0542
     20 C          65.6383   91.0774   14.7249 C.3     1  UNL1        0.0157
     21 C          67.0491   91.5696   14.5928 C.3     1  UNL1        0.0014
     22 C          67.1539   92.3368   13.3081 C.3     1  UNL1        0.0014
     23 C          65.8080   92.3187   12.6462 C.3     1  UNL1        0.0157
@<TRIPOS>BOND
     1    14    15    1
     2    15     7    1
     3     7     8   ar
     4     8     9   ar
     5     9    10    1
     6     9    11   ar
     7    11    12   ar
     8    12    13   ar
     9    13     1    1
    10     1     2   ar
    11     2     3   ar
    12     3     4   ar
    13     4     5   ar
    14     5    16    1
    15    16    17    1
    16    17    19    1
    17    19    20    1
    18    20    21    1
    19    21    22    1
    20    22    23    1
    21     5     6   ar
    22    13     7   ar
    23     6     1   ar
    24    23    19    1
    25    17    18    1
@<TRIPOS>MOLECULE
*****
 23 25 0 0 0
SMALL
GASTEIGER

@<TRIPOS>ATOM
      1 C          62.9195   84.1413   12.8001 C.ar    1  UNL1        0.0218
      2 C          62.3904   82.8341   13.3112 C.ar    1  UNL1        0.0989
      3 N          62.3721   82.5572   14.7852 N.ar    1  UNL1       -0.2426
      4 C          62.8828   83.5876   15.7483 C.ar    1  UNL1        0.0959
      5 C          63.4119   84.8948   15.2372 C.ar    1  UNL1        0.0128
      6 C          63.4303   85.1717   13.7630 C.ar    1  UNL1        0.0003
      7 C          62.1120   85.5363   10.7624 C.ar    1  UNL1        0.1409
      8 C          62.1303   85.8131    9.2883 C.ar    1  UNL1        0.0665
      9 C          62.9745   84.9716    8.3777 C.ar    1  UNL1        0.1432
     10 F          62.9928   85.2484    6.9035 F       1  UNL1       -0.2041
     11 C          63.8003   83.8534    8.9411 C.ar    1  UNL1        0.0298
     12 C          63.7820   83.5766   10.4152 C.ar    1  UNL1        0.0054
     13 C          62.9378   84.4181   11.3259 C.ar    1  UNL1        0.0356
     14 C          60.5601   87.5863   11.1358 C.3     1  UNL1        0.2525
     15 O          61.2678   86.3778   11.6731 O.3     1  UNL1       -0.4714
     16 C          63.9227   85.9252   16.2002 C.3     1  UNL1        0.0971
     17 N          63.1302   87.1733   16.4533 N.3     1  UNL1       -0.2948
     18 H          63.0984   87.3019   17.4646 H       1  UNL1        0.1235
     19 C          63.5779   88.4784   15.8646 C.3     1  UNL1        0.0542
     20 C          64.3853   88.6499   14.6122 C.3     1  UNL1        0.0157
     21 C          64.6032   90.1185   14.3985 C.3     1  UNL1        0.0014
     22 C          63.9304   90.8547   15.5190 C.3     1  UNL1        0.0014
     23 C          63.2967   89.8410   16.4251 C.3     1  UNL1        0.0157
@<TRIPOS>BOND
     1    14    15    1
     2    15     7    1
     3     7     8   ar
     4     8     9   ar
     5     9    10    1
     6     9    11   ar
     7    11    12   ar
     8    12    13   ar
     9    13     1    1
    10     1     2   ar
    11     2     3   ar
    12     3     4   ar
    13     4     5   ar
    14     5    16    1
    15    16    17    1
    16    17    19    1
    17    19    20    1
    18    20    21    1
    19    21    22    1
    20    22    23    1
    21     5     6   ar
    22    13     7   ar
    23     6     1   ar
    24    23    19    1
    25    17    18    1
@<TRIPOS>MOLECULE
*****
 23 25 0 0 0
SMALL
GASTEIGER

@<TRIPOS>ATOM
      1 C          62.5319   84.8010   10.8630 C.ar    1  UNL1        0.0218
      2 C          63.0714   84.8645    9.4648 C.ar    1  UNL1        0.0989
      3 N          62.6796   85.9952    8.5603 N.ar    1  UNL1       -0.2426
      4 C          61.7483   87.0624    9.0540 C.ar    1  UNL1        0.0959
      5 C          61.2088   86.9990   10.4522 C.ar    1  UNL1        0.0128
      6 C          61.6006   85.8682   11.3567 C.ar    1  UNL1        0.0003
      7 C          63.5811   83.9569   13.0848 C.ar    1  UNL1        0.1409
      8 C          63.9728   82.8262   13.9892 C.ar    1  UNL1        0.0665
      9 C          63.7072   81.4089   13.5763 C.ar    1  UNL1        0.1432
     10 F          64.0990   80.2782   14.4807 F       1  UNL1       -0.2041
     11 C          63.0497   81.1223   12.2589 C.ar    1  UNL1        0.0298
     12 C          62.6580   82.2530   11.3545 C.ar    1  UNL1        0.0054
     13 C          62.9237   83.6703   11.7675 C.ar    1  UNL1        0.0356
     14 C          64.5312   85.6598   14.8016 C.3     1  UNL1        0.2525
     15 O          63.8468   85.3743   13.4978 O.3     1  UNL1       -0.4714
     16 C          60.2775   88.0662   10.9459 C.3     1  UNL1        0.0971
     17 N          60.7487   89.0591   11.9667 N.3     1  UNL1       -0.2948
     18 H          60.9741   88.5306   12.8094 H       1  UNL1        0.1235
     19 C          61.9328   89.9320   11.6732 C.3     1  UNL1        0.0542
     20 C          63.0089   90.3144   12.6458 C.3     1  UNL1        0.0157
     21 C          63.9898   91.1944   11.9294 C.3     1  UNL1        0.0014
     22 C          63.5200   91.3559   10.5140 C.3     1  UNL1        0.0014
     23 C          62.2487   90.5757   10.3557 C.3     1  UNL1        0.0157
@<TRIPOS>BOND
     1    14    15    1
     2    15     7    1
     3     7     8   ar
     4     8     9   ar
     5     9    10    1
     6     9    11   ar
     7    11    12   ar
     8    12    13   ar
     9    13     1    1
    10     1     2   ar
    11     2     3   ar
    12     3     4   ar
    13     4     5   ar
    14     5    16    1
    15    16    17    1
    16    17    19    1
    17    19    20    1
    18    20    21    1
    19    21    22    1
    20    22    23    1
    21     5     6   ar
    22    13     7   ar
    23     6     1   ar
    24    23    19    1
    25    17    18    1
@<TRIPOS>MOLECULE
*****
 23 25 0 0 0
SMALL
GASTEIGER

@<TRIPOS>ATOM
      1 C          62.3590   89.6688   11.3817 C.ar    1  UNL1        0.0218
      2 C          61.2095   90.5803   11.0690 C.ar    1  UNL1        0.0989
      3 N          60.1630   90.1560   10.0817 N.ar    1  UNL1       -0.2426
      4 C          60.2659   88.8201    9.4071 C.ar    1  UNL1        0.0959
      5 C          61.4154   87.9086    9.7199 C.ar    1  UNL1        0.0128
      6 C          62.4620   88.3330   10.7072 C.ar    1  UNL1        0.0003
      7 C          64.2924   91.2640   12.0652 C.ar    1  UNL1        0.1409
      8 C          65.3389   91.6883   13.0525 C.ar    1  UNL1        0.0665
      9 C          65.4985   90.9417   14.3437 C.ar    1  UNL1        0.1432
     10 F          66.5451   91.3660   15.3310 F       1  UNL1       -0.2041
     11 C          64.6116   89.7708   14.6475 C.ar    1  UNL1        0.0298
     12 C          63.5651   89.3465   13.6602 C.ar    1  UNL1        0.0054
     13 C          63.4055   90.0931   12.3691 C.ar    1  UNL1        0.0356
     14 C          65.1235   93.0706   10.3933 C.3     1  UNL1        0.2525
     15 O          64.1329   92.0106   10.7740 O.3     1  UNL1       -0.4714
     16 C          61.5184   86.5729    9.0453 C.3     1  UNL1        0.0971
     17 N          62.8164   85.8214    9.0641 N.3     1  UNL1       -0.2948
     18 H          63.5538   86.5109    9.2093 H       1  UNL1        0.1235
     19 C          63.0379   84.7320   10.0712 C.3     1  UNL1        0.0542
     20 C          62.4542   84.6757   11.4518 C.3     1  UNL1        0.0157
     21 C          62.9374   83.4166   12.1085 C.3     1  UNL1        0.0014
     22 C          63.8198   82.6947   11.1336 C.3     1  UNL1        0.0014
     23 C          63.8819   83.5076    9.8745 C.3     1  UNL1        0.0157
@<TRIPOS>BOND
     1    14    15    1
     2    15     7    1
     3     7     8   ar
     4     8     9   ar
     5     9    10    1
     6     9    11   ar
     7    11    12   ar
     8    12    13   ar
     9    13     1    1
    10     1     2   ar
    11     2     3   ar
    12     3     4   ar
    13     4     5   ar
    14     5    16    1
    15    16    17    1
    16    17    19    1
    17    19    20    1
    18    20    21    1
    19    21    22    1
    20    22    23    1
    21     5     6   ar
    22    13     7   ar
    23     6     1   ar
    24    23    19    1
    25    17    18    1
