@<TRIPOS>MOLECULE
*****
 27 29 0 0 0
SMALL
GASTEIGER

@<TRIPOS>ATOM
      1 C          64.2359   90.4286   13.0728 C.3     1  UNL1        0.0506
      2 C          66.0208   94.1179   11.2145 C.ar    1  UNL1        0.0479
      3 C          66.2624   93.8162   12.6638 C.ar    1  UNL1        0.0142
      4 C          65.6675   92.5864   13.2832 C.ar    1  UNL1       -0.0027
      5 C          64.8309   91.6584   12.4534 C.ar    1  UNL1       -0.0180
      6 C          64.5892   91.9601   11.0041 C.ar    1  UNL1       -0.0027
      7 C          65.1842   93.1898   10.3846 C.ar    1  UNL1        0.0142
      8 C          67.5492   95.2228    9.4276 C.3     1  UNL1        0.1122
      9 N          66.6157   95.3476   10.5950 N.pl3   1  UNL1       -0.3041
     10 C          66.2772   96.7023   11.1430 C.3     1  UNL1        0.1122
     11 C          63.0615   89.7561   12.4259 C.ar    1  UNL1       -0.0180
     12 C          61.7686   90.4987   12.2620 C.ar    1  UNL1       -0.0039
     13 C          60.5942   89.8262   11.6151 C.ar    1  UNL1       -0.0003
     14 C          60.7127   88.4111   11.1321 C.ar    1  UNL1       -0.0000
     15 C          62.0056   87.6684   11.2960 C.ar    1  UNL1       -0.0003
     16 C          63.1800   88.3409   11.9429 C.ar    1  UNL1       -0.0039
     17 C          64.8153   89.8714   14.3392 C.3     1  UNL1        0.0578
     18 C          63.9254   89.6020   15.5162 C.2     1  UNL1        0.0975
     19 N          63.3195   90.7449   16.2755 N.2     1  UNL1       -0.0908
     20 O          63.3549   91.5380   16.2038 O.2     1  UNL1       -0.4090
     21 H          62.8853   92.0841   16.8032 H       1  UNL1        0.3278
     22 C          63.6413   88.1895   15.9339 C.ar    1  UNL1        0.0198
     23 C          64.1446   87.0462   15.1036 C.ar    1  UNL1        0.0220
     24 C          63.8606   85.6338   15.5212 C.ar    1  UNL1        0.0989
     25 N          63.0732   85.3647   16.7693 N.ar    1  UNL1       -0.2423
     26 C          62.5699   86.5080   17.5997 C.ar    1  UNL1        0.0989
     27 C          62.8540   87.9205   17.1820 C.ar    1  UNL1        0.0220
@<TRIPOS>BOND
     1     8     9    1
     2     9    10    1
     3     9     2    1
     4     2     3   ar
     5     3     4   ar
     6     4     5   ar
     7     5     1    1
     8     1    17    1
     9    17    18    1
    10    18    19    2
    11    19    20    1
    12    18    22    1
    13    22    23   ar
    14    23    24   ar
    15    24    25   ar
    16    25    26   ar
    17    26    27   ar
    18     1    11    1
    19    11    12   ar
    20    12    13   ar
    21    13    14   ar
    22    14    15   ar
    23    15    16   ar
    24     5     6   ar
    25     6     7   ar
    26     7     2   ar
    27    27    22   ar
    28    16    11   ar
    29    20    21    1
@<TRIPOS>MOLECULE
*****
 27 29 0 0 0
SMALL
GASTEIGER

@<TRIPOS>ATOM
      1 C          64.2349   90.4253   13.0717 C.3     1  UNL1        0.0506
      2 C          66.0232   94.1199   11.2274 C.ar    1  UNL1        0.0479
      3 C          65.1921   93.1918   10.3922 C.ar    1  UNL1        0.0142
      4 C          64.5960   91.9602   11.0069 C.ar    1  UNL1       -0.0027
      5 C          64.8310   91.6568   12.4570 C.ar    1  UNL1       -0.0180
      6 C          65.6621   92.5850   13.2922 C.ar    1  UNL1       -0.0027
      7 C          66.2582   93.8166   12.6775 C.ar    1  UNL1        0.0142
      8 C          67.5408   95.2312    9.4353 C.3     1  UNL1        0.1122
      9 N          66.6193   95.3515   10.6127 N.pl3   1  UNL1       -0.3041
     10 C          66.2938   96.7033   11.1753 C.3     1  UNL1        0.1122
     11 C          63.0611   89.7553   12.4213 C.ar    1  UNL1       -0.0180
     12 C          63.1818   88.3439   11.9277 C.ar    1  UNL1       -0.0039
     13 C          62.0079   87.6739   11.2772 C.ar    1  UNL1       -0.0003
     14 C          60.7133   88.4152   11.1204 C.ar    1  UNL1       -0.0000
     15 C          60.5926   89.8265   11.6139 C.ar    1  UNL1       -0.0003
     16 C          61.7665   90.4965   12.2644 C.ar    1  UNL1       -0.0039
     17 C          64.8127   89.8637   14.3369 C.3     1  UNL1        0.0578
     18 C          63.9217   89.5930   15.5129 C.2     1  UNL1        0.0975
     19 N          63.3174   90.7351   16.2746 N.2     1  UNL1       -0.0908
     20 O          63.3542   91.5284   16.2048 O.2     1  UNL1       -0.4090
     21 H          62.8852   92.0738   16.8053 H       1  UNL1        0.3278
     22 C          63.6350   88.1800   15.9270 C.ar    1  UNL1        0.0198
     23 C          64.1346   87.0379   15.0928 C.ar    1  UNL1        0.0220
     24 C          63.8480   85.6250   15.5070 C.ar    1  UNL1        0.0989
     25 N          63.0617   85.3542   16.7554 N.ar    1  UNL1       -0.2423
     26 C          62.5620   86.4963   17.5896 C.ar    1  UNL1        0.0989
     27 C          62.8487   87.9093   17.1754 C.ar    1  UNL1        0.0220
@<TRIPOS>BOND
     1     8     9    1
     2     9    10    1
     3     9     2    1
     4     2     3   ar
     5     3     4   ar
     6     4     5   ar
     7     5     1    1
     8     1    17    1
     9    17    18    1
    10    18    19    2
    11    19    20    1
    12    18    22    1
    13    22    23   ar
    14    23    24   ar
    15    24    25   ar
    16    25    26   ar
    17    26    27   ar
    18     1    11    1
    19    11    12   ar
    20    12    13   ar
    21    13    14   ar
    22    14    15   ar
    23    15    16   ar
    24     5     6   ar
    25     6     7   ar
    26     7     2   ar
    27    27    22   ar
    28    16    11   ar
    29    20    21    1
@<TRIPOS>MOLECULE
*****
 27 29 0 0 0
SMALL
GASTEIGER

@<TRIPOS>ATOM
      1 C          63.2448   84.2542   12.5005 C.3     1  UNL1        0.0506
      2 C          60.9968   86.8016    9.5497 C.ar    1  UNL1        0.0479
      3 C          61.9026   85.7103    9.0613 C.ar    1  UNL1        0.0142
      4 C          62.6519   84.8612   10.0449 C.ar    1  UNL1       -0.0027
      5 C          62.4954   85.1033   11.5169 C.ar    1  UNL1       -0.0180
      6 C          61.5896   86.1946   12.0053 C.ar    1  UNL1       -0.0027
      7 C          60.8403   87.0437   11.0217 C.ar    1  UNL1        0.0142
      8 C          59.4523   87.0048    7.4705 C.3     1  UNL1        0.1122
      9 N          60.2474   87.6507    8.5661 N.pl3   1  UNL1       -0.3041
     10 C          60.2932   89.1458    8.6782 C.3     1  UNL1        0.1122
     11 C          62.8286   82.8321   12.7337 C.ar    1  UNL1       -0.0180
     12 C          63.2888   81.7530   11.7988 C.ar    1  UNL1       -0.0039
     13 C          62.8726   80.3309   12.0320 C.ar    1  UNL1       -0.0003
     14 C          61.9962   79.9878   13.2000 C.ar    1  UNL1       -0.0000
     15 C          61.5360   81.0668   14.1348 C.ar    1  UNL1       -0.0003
     16 C          61.9522   82.4890   13.9017 C.ar    1  UNL1       -0.0039
     17 C          64.4103   84.8271   13.2509 C.3     1  UNL1        0.0578
     18 C          64.3224   85.0255   14.7352 C.2     1  UNL1        0.0975
     19 N          64.5859   83.8763   15.6624 N.2     1  UNL1       -0.0908
     20 O          64.7801   83.1108   15.5542 O.2     1  UNL1       -0.4090
     21 H          64.9014   82.5491   16.2943 H       1  UNL1        0.3278
     22 C          63.9710   86.3733   15.2921 C.ar    1  UNL1        0.0198
     23 C          64.3036   87.6145   14.5183 C.ar    1  UNL1        0.0220
     24 C          63.9523   88.9622   15.0752 C.ar    1  UNL1        0.0989
     25 N          63.2683   89.0688   16.4060 N.ar    1  UNL1       -0.2423
     26 C          62.9357   87.8276   17.1798 C.ar    1  UNL1        0.0989
     27 C          63.2871   86.4798   16.6228 C.ar    1  UNL1        0.0220
@<TRIPOS>BOND
     1     8     9    1
     2     9    10    1
     3     9     2    1
     4     2     3   ar
     5     3     4   ar
     6     4     5   ar
     7     5     1    1
     8     1    17    1
     9    17    18    1
    10    18    19    2
    11    19    20    1
    12    18    22    1
    13    22    23   ar
    14    23    24   ar
    15    24    25   ar
    16    25    26   ar
    17    26    27   ar
    18     1    11    1
    19    11    12   ar
    20    12    13   ar
    21    13    14   ar
    22    14    15   ar
    23    15    16   ar
    24     5     6   ar
    25     6     7   ar
    26     7     2   ar
    27    27    22   ar
    28    16    11   ar
    29    20    21    1
@<TRIPOS>MOLECULE
*****
 27 29 0 0 0
SMALL
GASTEIGER

@<TRIPOS>ATOM
      1 C          63.4654   85.3474   13.1713 C.3     1  UNL1        0.0506
      2 C          61.1826   87.4648    9.9224 C.ar    1  UNL1        0.0479
      3 C          61.1437   85.9680   10.0131 C.ar    1  UNL1        0.0142
      4 C          61.9046   85.2623   11.0961 C.ar    1  UNL1       -0.0027
      5 C          62.7045   86.0532   12.0883 C.ar    1  UNL1       -0.0180
      6 C          62.7434   87.5499   11.9976 C.ar    1  UNL1       -0.0027
      7 C          61.9824   88.2557   10.9146 C.ar    1  UNL1        0.0142
      8 C          60.3748   89.6695    8.8104 C.3     1  UNL1        0.1122
      9 N          60.4216   88.1705    8.8394 N.pl3   1  UNL1       -0.3041
     10 C          59.7075   87.3773    7.7854 C.3     1  UNL1        0.1122
     11 C          63.3085   83.8671   13.3556 C.ar    1  UNL1       -0.0180
     12 C          64.2963   82.9250   12.7337 C.ar    1  UNL1       -0.0039
     13 C          64.1394   81.4447   12.9180 C.ar    1  UNL1       -0.0003
     14 C          62.9948   80.9064   13.7243 C.ar    1  UNL1       -0.0000
     15 C          62.0070   81.8485   14.3462 C.ar    1  UNL1       -0.0003
     16 C          62.1639   83.3289   14.1619 C.ar    1  UNL1       -0.0039
     17 C          64.3832   86.1220   14.0700 C.3     1  UNL1        0.0578
     18 C          63.8354   86.8214   15.2785 C.2     1  UNL1        0.0975
     19 N          63.2596   86.0231   16.4104 N.2     1  UNL1       -0.0908
     20 O          63.1618   85.2434   16.5446 O.2     1  UNL1       -0.4090
     21 H          62.7674   84.9513   17.3428 H       1  UNL1        0.3278
     22 C          63.8634   88.3192   15.3552 C.ar    1  UNL1        0.0198
     23 C          63.2380   89.0222   16.5235 C.ar    1  UNL1        0.0220
     24 C          63.2659   90.5199   16.6002 C.ar    1  UNL1        0.0989
     25 N          63.9193   91.3148   15.5087 N.ar    1  UNL1       -0.2423
     26 C          64.5448   90.6119   14.3405 C.ar    1  UNL1        0.0989
     27 C          64.5168   89.1140   14.2638 C.ar    1  UNL1        0.0220
@<TRIPOS>BOND
     1     8     9    1
     2     9    10    1
     3     9     2    1
     4     2     3   ar
     5     3     4   ar
     6     4     5   ar
     7     5     1    1
     8     1    17    1
     9    17    18    1
    10    18    19    2
    11    19    20    1
    12    18    22    1
    13    22    23   ar
    14    23    24   ar
    15    24    25   ar
    16    25    26   ar
    17    26    27   ar
    18     1    11    1
    19    11    12   ar
    20    12    13   ar
    21    13    14   ar
    22    14    15   ar
    23    15    16   ar
    24     5     6   ar
    25     6     7   ar
    26     7     2   ar
    27    27    22   ar
    28    16    11   ar
    29    20    21    1
@<TRIPOS>MOLECULE
*****
 27 29 0 0 0
SMALL
GASTEIGER

@<TRIPOS>ATOM
      1 C          63.9884   87.9289   13.9228 C.3     1  UNL1        0.0506
      2 C          61.5488   87.8052   10.1434 C.ar    1  UNL1        0.0479
      3 C          61.9716   86.5273   10.8054 C.ar    1  UNL1        0.0142
      4 C          62.7848   86.5685   12.0651 C.ar    1  UNL1       -0.0027
      5 C          63.1752   87.8876   12.6630 C.ar    1  UNL1       -0.0180
      6 C          62.7524   89.1655   12.0010 C.ar    1  UNL1       -0.0027
      7 C          61.9392   89.1243   10.7412 C.ar    1  UNL1        0.0142
      8 C          60.5761   86.4735    8.1359 C.3     1  UNL1        0.1122
      9 N          60.7357   87.7639    8.8836 N.pl3   1  UNL1       -0.3041
     10 C          60.0821   89.0131    8.3716 C.3     1  UNL1        0.1122
     11 C          64.1892   89.2289   14.6436 C.ar    1  UNL1       -0.0180
     12 C          63.3485   89.5603   15.8408 C.ar    1  UNL1       -0.0039
     13 C          63.5493   90.8603   16.5617 C.ar    1  UNL1       -0.0003
     14 C          64.5909   91.8290   16.0853 C.ar    1  UNL1       -0.0000
     15 C          65.4316   91.4976   14.8881 C.ar    1  UNL1       -0.0003
     16 C          65.2308   90.1975   14.1672 C.ar    1  UNL1       -0.0039
     17 C          64.6007   86.6701   14.4617 C.3     1  UNL1        0.0578
     18 C          63.7372   85.6440   15.1336 C.2     1  UNL1        0.0975
     19 N          63.0616   85.9672   16.4332 N.2     1  UNL1       -0.0908
     20 O          63.0442   86.6108   16.9033 O.2     1  UNL1       -0.4090
     21 H          62.5429   86.5994   17.6949 H       1  UNL1        0.3278
     22 C          63.5493   84.2947   14.5058 C.ar    1  UNL1        0.0198
     23 C          62.3995   83.4267   14.9235 C.ar    1  UNL1        0.0220
     24 C          62.2116   82.0774   14.2958 C.ar    1  UNL1        0.0989
     25 N          63.1736   81.5961   13.2502 N.ar    1  UNL1       -0.2423
     26 C          64.3234   82.4641   12.8325 C.ar    1  UNL1        0.0989
     27 C          64.5112   83.8134   13.4603 C.ar    1  UNL1        0.0220
@<TRIPOS>BOND
     1     8     9    1
     2     9    10    1
     3     9     2    1
     4     2     3   ar
     5     3     4   ar
     6     4     5   ar
     7     5     1    1
     8     1    17    1
     9    17    18    1
    10    18    19    2
    11    19    20    1
    12    18    22    1
    13    22    23   ar
    14    23    24   ar
    15    24    25   ar
    16    25    26   ar
    17    26    27   ar
    18     1    11    1
    19    11    12   ar
    20    12    13   ar
    21    13    14   ar
    22    14    15   ar
    23    15    16   ar
    24     5     6   ar
    25     6     7   ar
    26     7     2   ar
    27    27    22   ar
    28    16    11   ar
    29    20    21    1
@<TRIPOS>MOLECULE
*****
 27 29 0 0 0
SMALL
GASTEIGER

@<TRIPOS>ATOM
      1 C          62.0943   87.7903   10.5081 C.3     1  UNL1        0.0506
      2 C          63.3667   84.2121   12.9222 C.ar    1  UNL1        0.0479
      3 C          63.5870   85.5955   13.4585 C.ar    1  UNL1        0.0142
      4 C          63.1628   86.7882   12.6538 C.ar    1  UNL1       -0.0027
      5 C          62.5184   86.5976   11.3128 C.ar    1  UNL1       -0.0180
      6 C          62.2981   85.2142   10.7765 C.ar    1  UNL1       -0.0027
      7 C          62.7223   84.0215   11.5812 C.ar    1  UNL1        0.0142
      8 C          63.8775   81.6696   13.0785 C.3     1  UNL1        0.1122
      9 N          63.7908   83.0194   13.7269 N.pl3   1  UNL1       -0.3041
     10 C          64.1283   83.1765   15.1799 C.3     1  UNL1        0.1122
     11 C          61.1005   87.6299    9.3961 C.ar    1  UNL1       -0.0180
     12 C          60.3963   88.8321    8.8403 C.ar    1  UNL1       -0.0039
     13 C          59.4026   88.6717    7.7282 C.ar    1  UNL1       -0.0003
     14 C          59.1130   87.3091    7.1719 C.ar    1  UNL1       -0.0000
     15 C          59.8171   86.1069    7.7276 C.ar    1  UNL1       -0.0003
     16 C          60.8110   86.2673    8.8397 C.ar    1  UNL1       -0.0039
     17 C          62.6639   89.1434   10.8155 C.3     1  UNL1        0.0578
     18 C          62.3233   89.8247   12.1077 C.2     1  UNL1        0.0975
     19 N          60.9213   89.7695   12.6379 N.2     1  UNL1       -0.0908
     20 O          60.2445   89.4362   12.3802 O.2     1  UNL1       -0.4090
     21 H          59.4576   89.5265   12.8808 H       1  UNL1        0.3278
     22 C          63.3849   90.5611   12.8698 C.ar    1  UNL1        0.0198
     23 C          64.2682   91.5465   12.1635 C.ar    1  UNL1        0.0220
     24 C          65.3297   92.2829   12.9255 C.ar    1  UNL1        0.0989
     25 N          65.5081   92.0339   14.3940 N.ar    1  UNL1       -0.2423
     26 C          64.6249   91.0486   15.1003 C.ar    1  UNL1        0.0989
     27 C          63.5633   90.3121   14.3382 C.ar    1  UNL1        0.0220
@<TRIPOS>BOND
     1     8     9    1
     2     9    10    1
     3     9     2    1
     4     2     3   ar
     5     3     4   ar
     6     4     5   ar
     7     5     1    1
     8     1    17    1
     9    17    18    1
    10    18    19    2
    11    19    20    1
    12    18    22    1
    13    22    23   ar
    14    23    24   ar
    15    24    25   ar
    16    25    26   ar
    17    26    27   ar
    18     1    11    1
    19    11    12   ar
    20    12    13   ar
    21    13    14   ar
    22    14    15   ar
    23    15    16   ar
    24     5     6   ar
    25     6     7   ar
    26     7     2   ar
    27    27    22   ar
    28    16    11   ar
    29    20    21    1
@<TRIPOS>MOLECULE
*****
 27 29 0 0 0
SMALL
GASTEIGER

@<TRIPOS>ATOM
      1 C          63.1970   90.3047   12.9162 C.3     1  UNL1        0.0506
      2 C          61.4916   87.6202    9.7326 C.ar    1  UNL1        0.0479
      3 C          62.2805   87.0330   10.8653 C.ar    1  UNL1        0.0142
      4 C          62.8489   87.9279   11.9265 C.ar    1  UNL1       -0.0027
      5 C          62.6285   89.4098   11.8550 C.ar    1  UNL1       -0.0180
      6 C          61.8397   89.9970   10.7224 C.ar    1  UNL1       -0.0027
      7 C          61.2712   89.1022    9.6612 C.ar    1  UNL1        0.0142
      8 C          59.4926   86.8795    8.2477 C.3     1  UNL1        0.1122
      9 N          60.9231   86.7254    8.6714 N.pl3   1  UNL1       -0.3041
     10 C          61.7852   85.6764    8.0340 C.3     1  UNL1        0.1122
     11 C          64.4366   91.1027   12.6395 C.ar    1  UNL1       -0.0180
     12 C          64.5797   91.8397   11.3408 C.ar    1  UNL1       -0.0039
     13 C          65.8193   92.6377   11.0640 C.ar    1  UNL1       -0.0003
     14 C          66.9157   92.6987   12.0858 C.ar    1  UNL1       -0.0000
     15 C          66.7726   91.9617   13.3844 C.ar    1  UNL1       -0.0003
     16 C          65.5330   91.1637   13.6613 C.ar    1  UNL1       -0.0039
     17 C          62.5259   90.4015   14.2542 C.3     1  UNL1        0.0578
     18 C          63.2491   89.9547   15.4901 C.2     1  UNL1        0.0975
     19 N          63.7027   90.9661   16.5006 N.2     1  UNL1       -0.0908
     20 O          63.6510   91.7599   16.5512 O.2     1  UNL1       -0.4090
     21 H          64.0126   92.2067   17.2912 H       1  UNL1        0.3278
     22 C          63.5186   88.4963   15.7154 C.ar    1  UNL1        0.0198
     23 C          62.8951   87.7899   16.8825 C.ar    1  UNL1        0.0220
     24 C          63.1646   86.3317   17.1078 C.ar    1  UNL1        0.0989
     25 N          64.0577   85.5797   16.1660 N.ar    1  UNL1       -0.2423
     26 C          64.6812   86.2861   14.9989 C.ar    1  UNL1        0.0989
     27 C          64.4117   87.7444   14.7736 C.ar    1  UNL1        0.0220
@<TRIPOS>BOND
     1     8     9    1
     2     9    10    1
     3     9     2    1
     4     2     3   ar
     5     3     4   ar
     6     4     5   ar
     7     5     1    1
     8     1    17    1
     9    17    18    1
    10    18    19    2
    11    19    20    1
    12    18    22    1
    13    22    23   ar
    14    23    24   ar
    15    24    25   ar
    16    25    26   ar
    17    26    27   ar
    18     1    11    1
    19    11    12   ar
    20    12    13   ar
    21    13    14   ar
    22    14    15   ar
    23    15    16   ar
    24     5     6   ar
    25     6     7   ar
    26     7     2   ar
    27    27    22   ar
    28    16    11   ar
    29    20    21    1
@<TRIPOS>MOLECULE
*****
 27 29 0 0 0
SMALL
GASTEIGER

@<TRIPOS>ATOM
      1 C          63.2369   87.9471   12.7572 C.3     1  UNL1        0.0506
      2 C          63.0693   83.4763   12.2736 C.ar    1  UNL1        0.0479
      3 C          63.7597   84.0768   13.4622 C.ar    1  UNL1        0.0142
      4 C          63.8156   85.5671   13.6234 C.ar    1  UNL1       -0.0027
      5 C          63.1810   86.4569   12.5960 C.ar    1  UNL1       -0.0180
      6 C          62.4906   85.8564   11.4074 C.ar    1  UNL1       -0.0027
      7 C          62.4347   84.3661   11.2463 C.ar    1  UNL1        0.0142
      8 C          62.7103   81.1146   13.2951 C.3     1  UNL1        0.1122
      9 N          63.0134   81.9861   12.1125 N.pl3   1  UNL1       -0.3041
     10 C          63.2606   81.3672   10.7686 C.3     1  UNL1        0.1122
     11 C          62.3290   88.8237   11.9465 C.ar    1  UNL1       -0.0180
     12 C          60.9409   89.1191   12.4325 C.ar    1  UNL1       -0.0039
     13 C          60.0331   89.9957   11.6218 C.ar    1  UNL1       -0.0003
     14 C          60.5132   90.5770   10.3250 C.ar    1  UNL1       -0.0000
     15 C          61.9012   90.2817    9.8390 C.ar    1  UNL1       -0.0003
     16 C          62.8091   89.4051   10.6497 C.ar    1  UNL1       -0.0039
     17 C          64.2006   88.5608   13.7290 C.3     1  UNL1        0.0578
     18 C          63.8942   89.8913   14.3503 C.2     1  UNL1        0.0975
     19 N          62.7699   90.0182   15.3350 N.2     1  UNL1       -0.0908
     20 O          62.2418   89.5057   15.6416 O.2     1  UNL1       -0.4090
     21 H          61.6050   89.8037   16.2609 H       1  UNL1        0.3278
     22 C          64.7123   91.0949   13.9868 C.ar    1  UNL1        0.0198
     23 C          64.6555   91.6475   12.5935 C.ar    1  UNL1        0.0220
     24 C          65.4735   92.8511   12.2300 C.ar    1  UNL1        0.0989
     25 N          66.3485   93.5022   13.2598 N.ar    1  UNL1       -0.2423
     26 C          66.4053   92.9496   14.6532 C.ar    1  UNL1        0.0989
     27 C          65.5873   91.7460   15.0167 C.ar    1  UNL1        0.0220
@<TRIPOS>BOND
     1     8     9    1
     2     9    10    1
     3     9     2    1
     4     2     3   ar
     5     3     4   ar
     6     4     5   ar
     7     5     1    1
     8     1    17    1
     9    17    18    1
    10    18    19    2
    11    19    20    1
    12    18    22    1
    13    22    23   ar
    14    23    24   ar
    15    24    25   ar
    16    25    26   ar
    17    26    27   ar
    18     1    11    1
    19    11    12   ar
    20    12    13   ar
    21    13    14   ar
    22    14    15   ar
    23    15    16   ar
    24     5     6   ar
    25     6     7   ar
    26     7     2   ar
    27    27    22   ar
    28    16    11   ar
    29    20    21    1
@<TRIPOS>MOLECULE
*****
 27 29 0 0 0
SMALL
GASTEIGER

@<TRIPOS>ATOM
      1 C          63.1636   88.7867   12.4105 C.3     1  UNL1        0.0506
      2 C          63.3712   84.3561   13.1703 C.ar    1  UNL1        0.0479
      3 C          62.6341   84.8780   11.9727 C.ar    1  UNL1        0.0142
      4 C          62.5649   86.3548   11.7194 C.ar    1  UNL1       -0.0027
      5 C          63.2328   87.3098   12.6638 C.ar    1  UNL1       -0.0180
      6 C          63.9699   86.7880   13.8614 C.ar    1  UNL1       -0.0027
      7 C          64.0391   85.3111   14.1147 C.ar    1  UNL1        0.0142
      8 C          62.5270   82.2477   14.4319 C.3     1  UNL1        0.1122
      9 N          63.4404   82.8793   13.4236 N.pl3   1  UNL1       -0.3041
     10 C          64.4229   82.0341   12.6685 C.3     1  UNL1        0.1122
     11 C          63.7825   89.7445   13.3849 C.ar    1  UNL1       -0.0180
     12 C          63.3466   89.7406   14.8202 C.ar    1  UNL1       -0.0039
     13 C          63.9655   90.6985   15.7946 C.ar    1  UNL1       -0.0003
     14 C          65.0203   91.6603   15.3338 C.ar    1  UNL1       -0.0000
     15 C          65.4562   91.6642   13.8985 C.ar    1  UNL1       -0.0003
     16 C          64.8373   90.7063   12.9241 C.ar    1  UNL1       -0.0039
     17 C          62.4755   89.3057   11.1829 C.3     1  UNL1        0.0578
     18 C          60.9888   89.1665   11.0410 C.2     1  UNL1        0.0975
     19 N          60.0885   89.5365   12.1823 N.2     1  UNL1       -0.0908
     20 O          60.2138   89.8162   12.9182 O.2     1  UNL1       -0.4090
     21 H          59.4872   89.9839   13.4856 H       1  UNL1        0.3278
     22 C          60.4023   88.6573    9.7577 C.ar    1  UNL1        0.0198
     23 C          60.1636   89.6004    8.6159 C.ar    1  UNL1        0.0220
     24 C          59.5772   89.0913    7.3326 C.ar    1  UNL1        0.0989
     25 N          59.2292   87.6390    7.1911 N.ar    1  UNL1       -0.2423
     26 C          59.4679   86.6959    8.3329 C.ar    1  UNL1        0.0989
     27 C          60.0544   87.2051    9.6162 C.ar    1  UNL1        0.0220
@<TRIPOS>BOND
     1     8     9    1
     2     9    10    1
     3     9     2    1
     4     2     3   ar
     5     3     4   ar
     6     4     5   ar
     7     5     1    1
     8     1    17    1
     9    17    18    1
    10    18    19    2
    11    19    20    1
    12    18    22    1
    13    22    23   ar
    14    23    24   ar
    15    24    25   ar
    16    25    26   ar
    17    26    27   ar
    18     1    11    1
    19    11    12   ar
    20    12    13   ar
    21    13    14   ar
    22    14    15   ar
    23    15    16   ar
    24     5     6   ar
    25     6     7   ar
    26     7     2   ar
    27    27    22   ar
    28    16    11   ar
    29    20    21    1
