@<TRIPOS>MOLECULE
*****
 29 31 0 0 0
SMALL
GASTEIGER

@<TRIPOS>ATOM
      1 C          63.5242   90.7204   11.7552 C.ar    1  UNL1        0.1534
      2 C          62.4898   90.7873   10.6710 C.ar    1  UNL1        0.0351
      3 C          61.5840   89.6172   10.4255 C.ar    1  UNL1        0.0722
      4 CL         60.5495   89.6840    9.3413 Cl      1  UNL1       -0.0809
      5 C          61.7127   88.3802   11.2641 C.ar    1  UNL1        0.0577
      6 C          62.7471   88.3133   12.3482 C.ar    1  UNL1        0.0462
      7 C          63.6529   89.4834   12.5938 C.ar    1  UNL1        0.1602
      8 F          64.6874   89.4166   13.6780 F       1  UNL1       -0.2027
      9 O          64.8660   91.8542   10.5660 O.2     1  UNL1       -0.1498
     10 S          64.4301   91.8906   12.0008 S.O2    1  UNL1        0.0772
     11 O          63.9941   91.9270   13.4355 O.2     1  UNL1       -0.1498
     12 N          65.3359   93.0607   12.2463 N.pl3   1  UNL1       -0.1936
     13 H          65.2633   93.8658   11.6844 H       1  UNL1        0.1758
     14 C          66.3524   93.0041   13.3479 C.ar    1  UNL1        0.1786
     15 N          66.4380   93.9393   14.5176 N.ar    1  UNL1       -0.2214
     16 C          67.6002   93.5155   15.3658 C.ar    1  UNL1        0.1079
     17 C          68.2330   92.3184   14.7204 C.ar    1  UNL1        0.0588
     18 S          67.4618   92.0023   13.4732 S.2     1  UNL1       -0.0497
     19 N          60.8068   87.2100   11.0185 N.pl3   1  UNL1       -0.3319
     20 H          60.0679   87.0204   11.6408 H       1  UNL1        0.1468
     21 C          61.0269   86.3288    9.8248 C.3     1  UNL1        0.0884
     22 C          62.3763   85.7212    9.5796 C.3     1  UNL1        0.0369
     23 C          62.8984   84.6579   10.4997 C.3     1  UNL1        0.0557
     24 C          63.8100   83.5902    9.9713 C.3     1  UNL1        0.0158
     25 C          64.3321   82.5269   10.8915 C.3     1  UNL1        0.0028
     26 C          63.9427   82.5312   12.3401 C.3     1  UNL1        0.0171
     27 C          63.0311   83.5988   12.8685 C.3     1  UNL1        0.0685
     28 N          62.5090   84.6622   11.9483 N.3     1  UNL1       -0.2985
     29 H          62.8111   85.5577   12.3317 H       1  UNL1        0.1232
@<TRIPOS>BOND
     1     9    10    2
     2    10    11    2
     3    10    12    1
     4    12    14    1
     5    14    15   ar
     6    15    16   ar
     7    16    17   ar
     8    17    18   ar
     9    10     1    1
    10     1     2   ar
    11     2     3   ar
    12     3     4    1
    13     3     5   ar
    14     5    19    1
    15    19    21    1
    16    21    22    1
    17    22    23    1
    18    23    24    1
    19    24    25    1
    20    25    26    1
    21    26    27    1
    22    27    28    1
    23     5     6   ar
    24     6     7   ar
    25     7     8    1
    26    18    14   ar
    27     7     1   ar
    28    28    23    1
    29    12    13    1
    30    19    20    1
    31    28    29    1
@<TRIPOS>MOLECULE
*****
 29 31 0 0 0
SMALL
GASTEIGER

@<TRIPOS>ATOM
      1 C          63.8289   86.8185   15.5419 C.ar    1  UNL1        0.1534
      2 C          64.1997   87.6461   14.3471 C.ar    1  UNL1        0.0351
      3 C          64.0787   89.1401   14.4028 C.ar    1  UNL1        0.0722
      4 CL         64.4494   89.9678   13.2079 Cl      1  UNL1       -0.0809
      5 C          63.5870   89.8066   15.6534 C.ar    1  UNL1        0.0577
      6 C          63.2162   88.9791   16.8483 C.ar    1  UNL1        0.0462
      7 C          63.3372   87.4850   16.7925 C.ar    1  UNL1        0.1602
      8 F          62.9665   86.6574   17.9874 F       1  UNL1       -0.2027
      9 O          62.5042   85.1933   15.8639 O.2     1  UNL1       -0.1498
     10 S          63.9499   85.3244   15.4862 S.O2    1  UNL1        0.0772
     11 O          65.3956   85.4555   15.1084 O.2     1  UNL1       -0.1498
     12 N          64.0708   83.8304   15.4305 N.pl3   1  UNL1       -0.1936
     13 H          64.5909   83.3527   16.1165 H       1  UNL1        0.1758
     14 C          63.3994   83.0641   14.3295 C.ar    1  UNL1        0.1786
     15 N          62.5349   81.8502   14.5004 N.ar    1  UNL1       -0.2214
     16 C          62.0758   81.4131   13.1409 C.ar    1  UNL1        0.1079
     17 C          62.6565   82.3568   12.1298 C.ar    1  UNL1        0.0588
     18 S          63.4746   83.3772   12.8645 S.2     1  UNL1       -0.0497
     19 N          63.4660   91.3008   15.7091 N.pl3   1  UNL1       -0.3319
     20 H          62.8799   91.7712   15.0732 H       1  UNL1        0.1468
     21 C          64.2380   92.0780   16.7338 C.3     1  UNL1        0.0884
     22 C          65.6791   92.4154   16.4900 C.3     1  UNL1        0.0369
     23 C          66.2212   92.4242   15.0915 C.3     1  UNL1        0.0557
     24 C          67.4727   91.6634   14.7673 C.3     1  UNL1        0.0158
     25 C          68.0147   91.6722   13.3688 C.3     1  UNL1        0.0028
     26 C          67.3053   92.4418   12.2942 C.3     1  UNL1        0.0171
     27 C          66.0539   93.2026   12.6184 C.3     1  UNL1        0.0685
     28 N          65.5118   93.1938   14.0170 N.3     1  UNL1       -0.2985
     29 H          64.5645   92.8194   13.9633 H       1  UNL1        0.1232
@<TRIPOS>BOND
     1     9    10    2
     2    10    11    2
     3    10    12    1
     4    12    14    1
     5    14    15   ar
     6    15    16   ar
     7    16    17   ar
     8    17    18   ar
     9    10     1    1
    10     1     2   ar
    11     2     3   ar
    12     3     4    1
    13     3     5   ar
    14     5    19    1
    15    19    21    1
    16    21    22    1
    17    22    23    1
    18    23    24    1
    19    24    25    1
    20    25    26    1
    21    26    27    1
    22    27    28    1
    23     5     6   ar
    24     6     7   ar
    25     7     8    1
    26    18    14   ar
    27     7     1   ar
    28    28    23    1
    29    12    13    1
    30    19    20    1
    31    28    29    1
@<TRIPOS>MOLECULE
*****
 29 31 0 0 0
SMALL
GASTEIGER

@<TRIPOS>ATOM
      1 C          64.7307   91.7042   11.9166 C.ar    1  UNL1        0.1534
      2 C          63.7530   91.5866   10.7851 C.ar    1  UNL1        0.0351
      3 C          62.7512   90.4703   10.7726 C.ar    1  UNL1        0.0722
      4 CL         61.7735   90.3527    9.6411 Cl      1  UNL1       -0.0809
      5 C          62.7271   89.4716   11.8915 C.ar    1  UNL1        0.0577
      6 C          63.7048   89.5892   13.0230 C.ar    1  UNL1        0.0462
      7 C          64.7066   90.7055   13.0355 C.ar    1  UNL1        0.1602
      8 F          65.6844   90.8232   14.1670 F       1  UNL1       -0.2027
      9 O          66.1192   92.4895   10.5182 O.2     1  UNL1       -0.1498
     10 S          65.7326   92.8206   11.9292 S.O2    1  UNL1        0.0772
     11 O          65.3460   93.1517   13.3401 O.2     1  UNL1       -0.1498
     12 N          66.7344   93.9369   11.9417 N.pl3   1  UNL1       -0.1936
     13 H          67.3823   94.0086   12.6795 H       1  UNL1        0.1758
     14 C          66.7492   94.9440   10.8301 C.ar    1  UNL1        0.1786
     15 N          67.7141   94.9760    9.6821 N.ar    1  UNL1       -0.2214
     16 C          67.3628   96.1477    8.8139 C.ar    1  UNL1        0.1079
     17 C          66.1807   96.8398    9.4253 C.ar    1  UNL1        0.0588
     18 S          65.8015   96.0958   10.6714 S.2     1  UNL1       -0.0497
     19 N          61.7252   88.3553   11.8789 N.pl3   1  UNL1       -0.3319
     20 H          61.0282   88.3115   12.5729 H       1  UNL1        0.1468
     21 C          61.7853   87.3056   10.8091 C.3     1  UNL1        0.0884
     22 C          61.5856   85.8617   11.1630 C.3     1  UNL1        0.0369
     23 C          62.5854   85.1570   12.0311 C.3     1  UNL1        0.0557
     24 C          63.0739   83.7897   11.6545 C.3     1  UNL1        0.0158
     25 C          64.0737   83.0850   12.5226 C.3     1  UNL1        0.0028
     26 C          64.5852   83.7476   13.7674 C.3     1  UNL1        0.0171
     27 C          64.0968   85.1150   14.1440 C.3     1  UNL1        0.0685
     28 N          63.0969   85.8197   13.2758 N.3     1  UNL1       -0.2985
     29 H          63.5259   86.6986   12.9864 H       1  UNL1        0.1232
@<TRIPOS>BOND
     1     9    10    2
     2    10    11    2
     3    10    12    1
     4    12    14    1
     5    14    15   ar
     6    15    16   ar
     7    16    17   ar
     8    17    18   ar
     9    10     1    1
    10     1     2   ar
    11     2     3   ar
    12     3     4    1
    13     3     5   ar
    14     5    19    1
    15    19    21    1
    16    21    22    1
    17    22    23    1
    18    23    24    1
    19    24    25    1
    20    25    26    1
    21    26    27    1
    22    27    28    1
    23     5     6   ar
    24     6     7   ar
    25     7     8    1
    26    18    14   ar
    27     7     1   ar
    28    28    23    1
    29    12    13    1
    30    19    20    1
    31    28    29    1
@<TRIPOS>MOLECULE
*****
 29 31 0 0 0
SMALL
GASTEIGER

@<TRIPOS>ATOM
      1 C          65.4705   92.3748   12.6673 C.ar    1  UNL1        0.1534
      2 C          64.2947   91.6971   12.0285 C.ar    1  UNL1        0.0351
      3 C          63.4336   90.7709   12.8351 C.ar    1  UNL1        0.0722
      4 CL         62.2577   90.0931   12.1963 Cl      1  UNL1       -0.0809
      5 C          63.7483   90.5225   14.2806 C.ar    1  UNL1        0.0577
      6 C          64.9241   91.2002   14.9194 C.ar    1  UNL1        0.0462
      7 C          65.7852   92.1264   14.1127 C.ar    1  UNL1        0.1602
      8 F          66.9611   92.8042   14.7515 F       1  UNL1       -0.2027
      9 O          66.4854   92.2424   10.8093 O.2     1  UNL1       -0.1498
     10 S          66.3317   93.3010   11.8607 S.O2    1  UNL1        0.0772
     11 O          66.1779   94.3597   12.9121 O.2     1  UNL1       -0.1498
     12 N          67.1928   94.2272   11.0541 N.pl3   1  UNL1       -0.1936
     13 H          68.1730   94.1826   11.1340 H       1  UNL1        0.1758
     14 C          66.5604   95.2214   10.1257 C.ar    1  UNL1        0.1786
     15 N          65.2867   95.9735   10.3742 N.ar    1  UNL1       -0.2214
     16 C          65.0299   96.8549    9.1879 C.ar    1  UNL1        0.1079
     17 C          66.1450   96.6475    8.2063 C.ar    1  UNL1        0.0588
     18 S          67.0910   95.6378    8.7859 S.2     1  UNL1       -0.0497
     19 N          62.8871   89.5963   15.0872 N.pl3   1  UNL1       -0.3319
     20 H          62.1225   89.1421   14.6648 H       1  UNL1        0.1468
     21 C          63.1909   89.3620   16.5372 C.3     1  UNL1        0.0884
     22 C          62.9983   87.9990   17.1332 C.3     1  UNL1        0.0369
     23 C          63.2549   86.7751   16.3048 C.3     1  UNL1        0.0557
     24 C          64.4146   86.7426   15.3541 C.3     1  UNL1        0.0158
     25 C          64.6712   85.5187   14.5257 C.3     1  UNL1        0.0028
     26 C          63.7680   84.3273   14.6480 C.3     1  UNL1        0.0171
     27 C          62.6083   84.3598   15.5988 C.3     1  UNL1        0.0685
     28 N          62.3517   85.5838   16.4272 N.3     1  UNL1       -0.2985
     29 H          62.3822   85.2902   17.4036 H       1  UNL1        0.1232
@<TRIPOS>BOND
     1     9    10    2
     2    10    11    2
     3    10    12    1
     4    12    14    1
     5    14    15   ar
     6    15    16   ar
     7    16    17   ar
     8    17    18   ar
     9    10     1    1
    10     1     2   ar
    11     2     3   ar
    12     3     4    1
    13     3     5   ar
    14     5    19    1
    15    19    21    1
    16    21    22    1
    17    22    23    1
    18    23    24    1
    19    24    25    1
    20    25    26    1
    21    26    27    1
    22    27    28    1
    23     5     6   ar
    24     6     7   ar
    25     7     8    1
    26    18    14   ar
    27     7     1   ar
    28    28    23    1
    29    12    13    1
    30    19    20    1
    31    28    29    1
@<TRIPOS>MOLECULE
*****
 29 31 0 0 0
SMALL
GASTEIGER

@<TRIPOS>ATOM
      1 C          63.9314   86.8150   14.0732 C.ar    1  UNL1        0.1534
      2 C          64.3163   87.9801   14.9360 C.ar    1  UNL1        0.0351
      3 C          64.0980   89.3808   14.4458 C.ar    1  UNL1        0.0722
      4 CL         64.4829   90.5459   15.3086 Cl      1  UNL1       -0.0809
      5 C          63.4950   89.6164   13.0927 C.ar    1  UNL1        0.0577
      6 C          63.1101   88.4513   12.2299 C.ar    1  UNL1        0.0462
      7 C          63.3284   87.0506   12.7202 C.ar    1  UNL1        0.1602
      8 F          62.9435   85.8855   11.8573 F       1  UNL1       -0.2027
      9 O          62.6657   85.2029   14.6201 O.2     1  UNL1       -0.1498
     10 S          64.1497   85.4142   14.5635 S.O2    1  UNL1        0.0772
     11 O          65.6336   85.6255   14.5068 O.2     1  UNL1       -0.1498
     12 N          64.3678   84.0135   15.0537 N.pl3   1  UNL1       -0.1936
     13 H          64.9183   83.8521   15.8538 H       1  UNL1        0.1758
     14 C          63.7472   82.8586   14.3249 C.ar    1  UNL1        0.1786
     15 N          62.6693   81.9592   14.8533 N.ar    1  UNL1       -0.2214
     16 C          62.3515   80.9451   13.7947 C.ar    1  UNL1        0.1079
     17 C          63.2330   81.2178   12.6120 C.ar    1  UNL1        0.0588
     18 S          64.0957   82.4004   12.9397 S.2     1  UNL1       -0.0497
     19 N          63.2767   91.0172   12.6025 N.pl3   1  UNL1       -0.3319
     20 H          62.5155   91.5433   12.9386 H       1  UNL1        0.1468
     21 C          64.2183   91.6162   11.6002 C.3     1  UNL1        0.0884
     22 C          65.4228   92.3795   12.0655 C.3     1  UNL1        0.0369
     23 C          66.1293   93.3113   11.1259 C.3     1  UNL1        0.0557
     24 C          67.2173   92.7931   10.2328 C.3     1  UNL1        0.0158
     25 C          67.9238   93.7248    9.2933 C.3     1  UNL1        0.0028
     26 C          67.5422   95.1748    9.2468 C.3     1  UNL1        0.0171
     27 C          66.4542   95.6930   10.1400 C.3     1  UNL1        0.0685
     28 N          65.7477   94.7611   11.0796 N.3     1  UNL1       -0.2985
     29 H          64.7568   94.7974   10.8405 H       1  UNL1        0.1232
@<TRIPOS>BOND
     1     9    10    2
     2    10    11    2
     3    10    12    1
     4    12    14    1
     5    14    15   ar
     6    15    16   ar
     7    16    17   ar
     8    17    18   ar
     9    10     1    1
    10     1     2   ar
    11     2     3   ar
    12     3     4    1
    13     3     5   ar
    14     5    19    1
    15    19    21    1
    16    21    22    1
    17    22    23    1
    18    23    24    1
    19    24    25    1
    20    25    26    1
    21    26    27    1
    22    27    28    1
    23     5     6   ar
    24     6     7   ar
    25     7     8    1
    26    18    14   ar
    27     7     1   ar
    28    28    23    1
    29    12    13    1
    30    19    20    1
    31    28    29    1
@<TRIPOS>MOLECULE
*****
 29 31 0 0 0
SMALL
GASTEIGER

@<TRIPOS>ATOM
      1 C          63.8359   86.7182   14.5158 C.ar    1  UNL1        0.1534
      2 C          63.9295   87.7806   15.5705 C.ar    1  UNL1        0.0351
      3 C          63.7832   89.2254   15.1947 C.ar    1  UNL1        0.0722
      4 CL         63.8768   90.2879   16.2494 Cl      1  UNL1       -0.0809
      5 C          63.5435   89.6076   13.7641 C.ar    1  UNL1        0.0577
      6 C          63.4500   88.5452   12.7095 C.ar    1  UNL1        0.0462
      7 C          63.5962   87.1005   13.0853 C.ar    1  UNL1        0.1602
      8 F          63.5027   86.0379   12.0306 F       1  UNL1       -0.2027
      9 O          65.4747   85.4072   14.8254 O.2     1  UNL1       -0.1498
     10 S          63.9822   85.2733   14.8916 S.O2    1  UNL1        0.0772
     11 O          62.4897   85.1395   14.9579 O.2     1  UNL1       -0.1498
     12 N          64.1284   83.8286   15.2674 N.pl3   1  UNL1       -0.1936
     13 H          64.5699   83.5819   16.1121 H       1  UNL1        0.1758
     14 C          63.6021   82.7596   14.3562 C.ar    1  UNL1        0.1786
     15 N          62.6068   81.6992   14.7237 N.ar    1  UNL1       -0.2214
     16 C          62.3682   80.8476   13.5121 C.ar    1  UNL1        0.1079
     17 C          63.2161   81.3816   12.3959 C.ar    1  UNL1        0.0588
     18 S          63.9787   82.5634   12.9176 S.2     1  UNL1       -0.0497
     19 N          63.3973   91.0525   13.3883 N.pl3   1  UNL1       -0.3319
     20 H          62.8433   91.6509   13.9399 H       1  UNL1        0.1468
     21 C          64.0951   91.5854   12.1722 C.3     1  UNL1        0.0884
     22 C          65.2625   92.5150   12.3244 C.3     1  UNL1        0.0369
     23 C          66.1121   92.4562   13.5592 C.3     1  UNL1        0.0557
     24 C          67.5384   92.0011   13.4673 C.3     1  UNL1        0.0158
     25 C          68.3879   91.9422   14.7021 C.3     1  UNL1        0.0028
     26 C          67.8111   92.3385   16.0289 C.3     1  UNL1        0.0171
     27 C          66.3848   92.7936   16.1208 C.3     1  UNL1        0.0685
     28 N          65.5353   92.8524   14.8859 N.3     1  UNL1       -0.2985
     29 H          65.2178   93.8173   14.7926 H       1  UNL1        0.1232
@<TRIPOS>BOND
     1     9    10    2
     2    10    11    2
     3    10    12    1
     4    12    14    1
     5    14    15   ar
     6    15    16   ar
     7    16    17   ar
     8    17    18   ar
     9    10     1    1
    10     1     2   ar
    11     2     3   ar
    12     3     4    1
    13     3     5   ar
    14     5    19    1
    15    19    21    1
    16    21    22    1
    17    22    23    1
    18    23    24    1
    19    24    25    1
    20    25    26    1
    21    26    27    1
    22    27    28    1
    23     5     6   ar
    24     6     7   ar
    25     7     8    1
    26    18    14   ar
    27     7     1   ar
    28    28    23    1
    29    12    13    1
    30    19    20    1
    31    28    29    1
@<TRIPOS>MOLECULE
*****
 29 31 0 0 0
SMALL
GASTEIGER

@<TRIPOS>ATOM
      1 C          63.5896   85.9150   13.7074 C.ar    1  UNL1        0.1534
      2 C          62.9113   86.1060   12.3832 C.ar    1  UNL1        0.0351
      3 C          62.8098   87.4771   11.7834 C.ar    1  UNL1        0.0722
      4 CL         62.1314   87.6681   10.4592 Cl      1  UNL1       -0.0809
      5 C          63.3865   88.6572   12.5078 C.ar    1  UNL1        0.0577
      6 C          64.0649   88.4662   13.8319 C.ar    1  UNL1        0.0462
      7 C          64.1664   87.0952   14.4317 C.ar    1  UNL1        0.1602
      8 F          64.8448   86.9041   15.7559 F       1  UNL1       -0.2027
      9 O          62.4888   84.8271   15.1581 O.2     1  UNL1       -0.1498
     10 S          63.6912   84.5439   14.3072 S.O2    1  UNL1        0.0772
     11 O          64.8936   84.2607   13.4564 O.2     1  UNL1       -0.1498
     12 N          63.7927   83.1729   14.9071 N.pl3   1  UNL1       -0.1936
     13 H          64.3875   83.0146   15.6755 H       1  UNL1        0.1758
     14 C          62.9881   82.0429   14.3362 C.ar    1  UNL1        0.1786
     15 N          61.5195   81.8153   14.5400 N.ar    1  UNL1       -0.2214
     16 C          61.1346   80.5740   13.7910 C.ar    1  UNL1        0.1079
     17 C          62.3652   80.0344   13.1243 C.ar    1  UNL1        0.0588
     18 S          63.5108   80.9423   13.4613 S.2     1  UNL1       -0.0497
     19 N          63.2850   90.0283   11.9079 N.pl3   1  UNL1       -0.3319
     20 H          62.9720   90.1381   10.9810 H       1  UNL1        0.1468
     21 C          63.6602   91.2321   12.7204 C.3     1  UNL1        0.0884
     22 C          64.9893   91.8948   12.5093 C.3     1  UNL1        0.0369
     23 C          65.9129   92.1101   13.6713 C.3     1  UNL1        0.0557
     24 C          67.3977   92.0264   13.4748 C.3     1  UNL1        0.0158
     25 C          68.3213   92.2417   14.6368 C.3     1  UNL1        0.0028
     26 C          67.7603   92.5407   15.9955 C.3     1  UNL1        0.0171
     27 C          66.2756   92.6245   16.1920 C.3     1  UNL1        0.0685
     28 N          65.3519   92.4091   15.0299 N.3     1  UNL1       -0.2985
     29 H          64.7925   93.2570   14.9374 H       1  UNL1        0.1232
@<TRIPOS>BOND
     1     9    10    2
     2    10    11    2
     3    10    12    1
     4    12    14    1
     5    14    15   ar
     6    15    16   ar
     7    16    17   ar
     8    17    18   ar
     9    10     1    1
    10     1     2   ar
    11     2     3   ar
    12     3     4    1
    13     3     5   ar
    14     5    19    1
    15    19    21    1
    16    21    22    1
    17    22    23    1
    18    23    24    1
    19    24    25    1
    20    25    26    1
    21    26    27    1
    22    27    28    1
    23     5     6   ar
    24     6     7   ar
    25     7     8    1
    26    18    14   ar
    27     7     1   ar
    28    28    23    1
    29    12    13    1
    30    19    20    1
    31    28    29    1
@<TRIPOS>MOLECULE
*****
 29 31 0 0 0
SMALL
GASTEIGER

@<TRIPOS>ATOM
      1 C          63.6459   86.1395   13.6635 C.ar    1  UNL1        0.1534
      2 C          64.1776   87.3224   14.4170 C.ar    1  UNL1        0.0351
      3 C          64.0456   88.7005   13.8396 C.ar    1  UNL1        0.0722
      4 CL         64.5773   89.8835   14.5931 Cl      1  UNL1       -0.0809
      5 C          63.3818   88.8956   12.5087 C.ar    1  UNL1        0.0577
      6 C          62.8501   87.7126   11.7551 C.ar    1  UNL1        0.0462
      7 C          62.9822   86.3346   12.3325 C.ar    1  UNL1        0.1602
      8 F          62.4505   85.1515   11.5790 F       1  UNL1       -0.2027
      9 O          62.3000   84.7260   14.4946 O.2     1  UNL1       -0.1498
     10 S          63.7780   84.7613   14.2409 S.O2    1  UNL1        0.0772
     11 O          65.2559   84.7965   13.9872 O.2     1  UNL1       -0.1498
     12 N          63.9099   83.3832   14.8182 N.pl3   1  UNL1       -0.1936
     13 H          64.3926   83.2487   15.6657 H       1  UNL1        0.1758
     14 C          63.3065   82.2100   14.1044 C.ar    1  UNL1        0.1786
     15 N          62.2410   81.3024   14.6440 N.ar    1  UNL1       -0.2214
     16 C          61.9386   80.2699   13.5988 C.ar    1  UNL1        0.1079
     17 C          62.8172   80.5393   12.4132 C.ar    1  UNL1        0.0588
     18 S          63.6627   81.7384   12.7257 S.2     1  UNL1       -0.0497
     19 N          63.2498   90.2738   11.9313 N.pl3   1  UNL1       -0.3319
     20 H          63.6907   91.0361   12.3713 H       1  UNL1        0.1468
     21 C          62.4461   90.4903   10.6835 C.3     1  UNL1        0.0884
     22 C          60.9711   90.2171   10.6845 C.3     1  UNL1        0.0369
     23 C          60.3801   89.2859    9.6679 C.3     1  UNL1        0.0557
     24 C          60.0909   87.8606   10.0351 C.3     1  UNL1        0.0158
     25 C          59.4999   86.9293    9.0185 C.3     1  UNL1        0.0028
     26 C          59.1981   87.4234    7.6347 C.3     1  UNL1        0.0171
     27 C          59.4873   88.8487    7.2676 C.3     1  UNL1        0.0685
     28 N          60.0783   89.7800    8.2842 N.3     1  UNL1       -0.2985
     29 H          59.4264   90.5580    8.3850 H       1  UNL1        0.1232
@<TRIPOS>BOND
     1     9    10    2
     2    10    11    2
     3    10    12    1
     4    12    14    1
     5    14    15   ar
     6    15    16   ar
     7    16    17   ar
     8    17    18   ar
     9    10     1    1
    10     1     2   ar
    11     2     3   ar
    12     3     4    1
    13     3     5   ar
    14     5    19    1
    15    19    21    1
    16    21    22    1
    17    22    23    1
    18    23    24    1
    19    24    25    1
    20    25    26    1
    21    26    27    1
    22    27    28    1
    23     5     6   ar
    24     6     7   ar
    25     7     8    1
    26    18    14   ar
    27     7     1   ar
    28    28    23    1
    29    12    13    1
    30    19    20    1
    31    28    29    1
@<TRIPOS>MOLECULE
*****
 29 31 0 0 0
SMALL
GASTEIGER

@<TRIPOS>ATOM
      1 C          64.4240   91.6083   11.8752 C.ar    1  UNL1        0.1534
      2 C          63.4856   91.5309   10.7075 C.ar    1  UNL1        0.0351
      3 C          62.3111   90.5989   10.7497 C.ar    1  UNL1        0.0722
      4 CL         61.3727   90.5216    9.5820 Cl      1  UNL1       -0.0809
      5 C          62.0749   89.7443   11.9596 C.ar    1  UNL1        0.0577
      6 C          63.0132   89.8216   13.1273 C.ar    1  UNL1        0.0462
      7 C          64.1878   90.7536   13.0851 C.ar    1  UNL1        0.1602
      8 F          65.1262   90.8310   14.2528 F       1  UNL1       -0.2027
      9 O          65.3389   92.9319   13.2575 O.2     1  UNL1       -0.1498
     10 S          65.5986   92.5403   11.8331 S.O2    1  UNL1        0.0772
     11 O          65.8582   92.1487   10.4086 O.2     1  UNL1       -0.1498
     12 N          66.7731   93.4723   11.7910 N.pl3   1  UNL1       -0.1936
     13 H          67.4971   93.3819   12.4519 H       1  UNL1        0.1758
     14 C          66.8446   94.5420   10.7418 C.ar    1  UNL1        0.1786
     15 N          67.8076   94.5870    9.5927 N.ar    1  UNL1       -0.2214
     16 C          67.5237   95.8273    8.7983 C.ar    1  UNL1        0.1079
     17 C          66.3851   96.5489    9.4564 C.ar    1  UNL1        0.0588
     18 S          65.9654   95.7544   10.6576 S.2     1  UNL1       -0.0497
     19 N          60.9003   88.8123   12.0018 N.pl3   1  UNL1       -0.3319
     20 H          60.0824   89.0726   12.4839 H       1  UNL1        0.1468
     21 C          60.9719   87.4837   11.3092 C.3     1  UNL1        0.0884
     22 C          62.1210   87.1749   10.3958 C.3     1  UNL1        0.0369
     23 C          61.8907   86.3860    9.1410 C.3     1  UNL1        0.0557
     24 C          63.0077   85.5816    8.5452 C.3     1  UNL1        0.0158
     25 C          62.7773   84.7927    7.2904 C.3     1  UNL1        0.0028
     26 C          61.4299   84.8083    6.6313 C.3     1  UNL1        0.0171
     27 C          60.3129   85.6128    7.2272 C.3     1  UNL1        0.0685
     28 N          60.5433   86.4017    8.4821 N.3     1  UNL1       -0.2985
     29 H          59.8742   86.0597    9.1718 H       1  UNL1        0.1232
@<TRIPOS>BOND
     1     9    10    2
     2    10    11    2
     3    10    12    1
     4    12    14    1
     5    14    15   ar
     6    15    16   ar
     7    16    17   ar
     8    17    18   ar
     9    10     1    1
    10     1     2   ar
    11     2     3   ar
    12     3     4    1
    13     3     5   ar
    14     5    19    1
    15    19    21    1
    16    21    22    1
    17    22    23    1
    18    23    24    1
    19    24    25    1
    20    25    26    1
    21    26    27    1
    22    27    28    1
    23     5     6   ar
    24     6     7   ar
    25     7     8    1
    26    18    14   ar
    27     7     1   ar
    28    28    23    1
    29    12    13    1
    30    19    20    1
    31    28    29    1
