@<TRIPOS>MOLECULE
*****
 31 34 0 0 0
SMALL
GASTEIGER

@<TRIPOS>ATOM
      1 C          64.0577   90.0540   13.7591 C.3     1  UNL1        0.0000
      2 C          63.3797   90.5210   12.5052 C.3     1  UNL1        0.0000
      3 C          62.9003   89.3111   11.7594 C.3     1  UNL1        0.0000
      4 C          63.2820   88.0965   12.5523 C.3     1  UNL1        0.0003
      5 C          63.0706   86.6315   12.3086 C.3     1  UNL1        0.0046
      6 C          62.3553   86.1724   11.0727 C.3     1  UNL1        0.0254
      7 C          62.1439   84.7075   10.8290 C.2     1  UNL1       -0.0345
      8 C          62.6478   83.7017   11.8212 C.2     1  UNL1       -0.0467
      9 C          62.4364   82.2368   11.5775 C.3     1  UNL1        0.0509
     10 C          62.9403   81.2311   12.5698 C.3     1  UNL1        0.1145
     11 O          62.7289   79.7662   12.3261 O.3     1  UNL1       -0.3841
     12 C          63.6556   81.6903   13.8057 C.3     1  UNL1        0.0299
     13 C          63.8670   83.1551   14.0494 C.3     1  UNL1        0.0062
     14 C          63.3631   84.1609   13.0572 C.3     1  UNL1        0.0150
     15 C          64.0784   84.6200   14.2931 C.3     1  UNL1        0.0040
     16 C          63.5745   85.6258   13.3008 C.3     1  UNL1        0.0038
     17 C          64.2898   86.0850   14.5368 C.3     1  UNL1        0.0003
     18 C          64.5012   87.5498   14.7805 C.3     1  UNL1        0.0000
     19 C          63.9973   88.5556   13.7882 C.3     1  UNL1        0.0000
     20 C          64.6910   89.1613   14.9722 C.3     1  UNL1        0.0000
     21 H          63.1125   79.2580   13.0579 H       1  UNL1        0.2103
     22 C          64.6858   90.9316   14.8010 C.3     1  UNL1        0.0000
     23 C          63.9446   91.2399   16.0680 C.3     1  UNL1        0.0000
     24 C          66.0552   91.5008   14.5757 C.3     1  UNL1        0.0000
     25 C          66.2188   92.7816   13.8124 C.3     1  UNL1        0.0000
     26 C          66.6558   92.7492   12.3778 C.3     1  UNL1        0.0000
     27 C          65.9113   93.5471   11.3487 C.3     1  UNL1        0.0000
     28 C          64.8928   92.8785   10.4738 C.3     1  UNL1        0.0000
     29 C          66.1855   95.0138   11.1945 C.3     1  UNL1        0.0000
     30 C          68.3012   91.9207   10.5458 C.3     1  UNL1        0.0000
     31 C          67.8373   91.9188   11.9723 C.3     1  UNL1        0.0000
@<TRIPOS>BOND
     1    30    31    1
     2    26    31    1
     3    26    25    1
     4    25    24    1
     5    24    22    1
     6    22    23    1
     7    22     1    1
     8     1     2    1
     9     2     3    1
    10     4     3    1
    11     4     5    1
    12     5     6    1
    13     6     7    1
    14     7     8    2
    15     8     9    1
    16     9    10    1
    17    10    11    1
    18    10    12    1
    19    12    13    1
    20    13    14    1
    21    14    15    1
    22    14    16    1
    23    16    17    1
    24    17    18    1
    25    18    19    1
    26    19    20    1
    27    26    27    1
    28    27    28    1
    29    27    29    1
    30    19     1    1
    31    19     4    1
    32    16     5    1
    33    14     8    1
    34    11    21    1
@<TRIPOS>MOLECULE
*****
 31 34 0 0 0
SMALL
GASTEIGER

@<TRIPOS>ATOM
      1 C          63.4188   89.8348   12.3415 C.3     1  UNL1        0.0000
      2 C          64.0919   90.1493   13.6446 C.3     1  UNL1        0.0000
      3 C          64.3111   88.8584   14.3764 C.3     1  UNL1        0.0000
      4 C          63.7735   87.7462   13.5257 C.3     1  UNL1        0.0003
      5 C          63.7149   86.2618   13.7337 C.3     1  UNL1        0.0046
      6 C          64.2664   85.6584   14.9913 C.3     1  UNL1        0.0254
      7 C          64.2078   84.1740   15.1994 C.2     1  UNL1       -0.0345
      8 C          63.5976   83.2931   14.1497 C.2     1  UNL1       -0.0467
      9 C          63.5390   81.8088   14.3577 C.3     1  UNL1        0.0509
     10 C          62.9289   80.9279   13.3081 C.3     1  UNL1        0.1145
     11 O          62.8703   79.4435   13.5161 O.3     1  UNL1       -0.3841
     12 C          62.3774   81.5313   12.0505 C.3     1  UNL1        0.0299
     13 C          62.4360   83.0156   11.8424 C.3     1  UNL1        0.0062
     14 C          63.0461   83.8965   12.8921 C.3     1  UNL1        0.0150
     15 C          62.4946   84.5000   11.6344 C.3     1  UNL1        0.0040
     16 C          63.1048   85.3809   12.6841 C.3     1  UNL1        0.0038
     17 C          62.5532   85.9844   11.4264 C.3     1  UNL1        0.0003
     18 C          62.6118   87.4687   11.2184 C.3     1  UNL1        0.0000
     19 C          63.2220   88.3496   12.2680 C.3     1  UNL1        0.0000
     20 C          62.7138   89.0924   11.0680 C.3     1  UNL1        0.0000
     21 H          62.4487   79.0259   12.7488 H       1  UNL1        0.2103
     22 C          63.0136   90.8307   11.2956 C.3     1  UNL1        0.0000
     23 C          61.5609   91.0567   10.9977 C.3     1  UNL1        0.0000
     24 C          64.0611   91.6008   10.5475 C.3     1  UNL1        0.0000
     25 C          64.7769   92.7371   11.2156 C.3     1  UNL1        0.0000
     26 C          66.2677   92.6938   11.3760 C.3     1  UNL1        0.0000
     27 C          67.1568   92.9469   10.1949 C.3     1  UNL1        0.0000
     28 C          68.1487   91.9066    9.7660 C.3     1  UNL1        0.0000
     29 C          67.0542   94.2405    9.4424 C.3     1  UNL1        0.0000
     30 C          66.4421   93.1836   13.9216 C.3     1  UNL1        0.0000
     31 C          66.8693   92.3973   12.7177 C.3     1  UNL1        0.0000
@<TRIPOS>BOND
     1    30    31    1
     2    26    31    1
     3    26    25    1
     4    25    24    1
     5    24    22    1
     6    22    23    1
     7    22     1    1
     8     1     2    1
     9     2     3    1
    10     4     3    1
    11     4     5    1
    12     5     6    1
    13     6     7    1
    14     7     8    2
    15     8     9    1
    16     9    10    1
    17    10    11    1
    18    10    12    1
    19    12    13    1
    20    13    14    1
    21    14    15    1
    22    14    16    1
    23    16    17    1
    24    17    18    1
    25    18    19    1
    26    19    20    1
    27    26    27    1
    28    27    28    1
    29    27    29    1
    30    19     1    1
    31    19     4    1
    32    16     5    1
    33    14     8    1
    34    11    21    1
@<TRIPOS>MOLECULE
*****
 31 34 0 0 0
SMALL
GASTEIGER

@<TRIPOS>ATOM
      1 C          62.2050   89.1525   10.6108 C.3     1  UNL1        0.0000
      2 C          62.1439   90.1097    9.4575 C.3     1  UNL1        0.0000
      3 C          63.0441   91.2684    9.7687 C.3     1  UNL1        0.0000
      4 C          63.6616   91.0273   11.1142 C.3     1  UNL1        0.0003
      5 C          64.6293   91.8297   11.9328 C.3     1  UNL1        0.0046
      6 C          65.1479   93.1374   11.4124 C.3     1  UNL1        0.0254
      7 C          66.1154   93.9397   12.2309 C.2     1  UNL1       -0.0345
      8 C          66.5644   93.4343   13.5700 C.2     1  UNL1       -0.0467
      9 C          67.5320   94.2366   14.3886 C.3     1  UNL1        0.0509
     10 C          67.9809   93.7312   15.7276 C.3     1  UNL1        0.1145
     11 O          68.9485   94.5335   16.5462 O.3     1  UNL1       -0.3841
     12 C          67.4623   92.4235   16.2480 C.3     1  UNL1        0.0299
     13 C          66.4947   91.6212   15.4295 C.3     1  UNL1        0.0062
     14 C          66.0458   92.1266   14.0905 C.3     1  UNL1        0.0150
     15 C          65.5272   90.8188   14.6109 C.3     1  UNL1        0.0040
     16 C          65.0782   91.3242   13.2718 C.3     1  UNL1        0.0038
     17 C          64.5596   90.0165   13.7923 C.3     1  UNL1        0.0003
     18 C          63.5920   89.2142   12.9737 C.3     1  UNL1        0.0000
     19 C          63.1430   89.7196   11.6347 C.3     1  UNL1        0.0000
     20 C          62.5418   88.4011   12.0221 C.3     1  UNL1        0.0000
     21 H          69.1326   94.0682   17.3772 H       1  UNL1        0.2103
     22 C          61.4590   87.8558   10.7208 C.3     1  UNL1        0.0000
     23 C          60.0253   87.8503   11.1617 C.3     1  UNL1        0.0000
     24 C          62.1468   86.5645   10.3898 C.3     1  UNL1        0.0000
     25 C          61.7692   85.3065   11.1142 C.3     1  UNL1        0.0000
     26 C          62.8126   84.5285   11.8600 C.3     1  UNL1        0.0000
     27 C          63.2603   83.1917   11.3477 C.3     1  UNL1        0.0000
     28 C          62.6775   81.9347   11.9223 C.3     1  UNL1        0.0000
     29 C          64.2908   83.1119   10.2606 C.3     1  UNL1        0.0000
     30 C          64.5234   84.3588   13.8079 C.3     1  UNL1        0.0000
     31 C          63.4083   85.0873   13.1181 C.3     1  UNL1        0.0000
@<TRIPOS>BOND
     1    30    31    1
     2    26    31    1
     3    26    25    1
     4    25    24    1
     5    24    22    1
     6    22    23    1
     7    22     1    1
     8     1     2    1
     9     2     3    1
    10     4     3    1
    11     4     5    1
    12     5     6    1
    13     6     7    1
    14     7     8    2
    15     8     9    1
    16     9    10    1
    17    10    11    1
    18    10    12    1
    19    12    13    1
    20    13    14    1
    21    14    15    1
    22    14    16    1
    23    16    17    1
    24    17    18    1
    25    18    19    1
    26    19    20    1
    27    26    27    1
    28    27    28    1
    29    27    29    1
    30    19     1    1
    31    19     4    1
    32    16     5    1
    33    14     8    1
    34    11    21    1
@<TRIPOS>MOLECULE
*****
 31 34 0 0 0
SMALL
GASTEIGER

@<TRIPOS>ATOM
      1 C          64.6890   89.7337   14.5008 C.3     1  UNL1        0.0000
      2 C          64.9872   88.3633   15.0328 C.3     1  UNL1        0.0000
      3 C          64.2871   87.3646   14.1595 C.3     1  UNL1        0.0000
      4 C          63.5563   88.1178   13.0878 C.3     1  UNL1        0.0003
      5 C          62.6967   87.6596   11.9471 C.3     1  UNL1        0.0046
      6 C          62.4484   86.1954   11.7362 C.3     1  UNL1        0.0254
      7 C          61.5888   85.7372   10.5955 C.2     1  UNL1       -0.0345
      8 C          60.9776   86.7432    9.6657 C.2     1  UNL1       -0.0467
      9 C          60.1180   86.2850    8.5250 C.3     1  UNL1        0.0509
     10 C          59.5069   87.2910    7.5953 C.3     1  UNL1        0.1145
     11 O          58.6473   86.8328    6.4545 O.3     1  UNL1       -0.3841
     12 C          59.7552   88.7551    7.8062 C.3     1  UNL1        0.0299
     13 C          60.6147   89.2134    8.9469 C.3     1  UNL1        0.0062
     14 C          61.2259   88.2074    9.8766 C.3     1  UNL1        0.0150
     15 C          61.4743   89.6716   10.0876 C.3     1  UNL1        0.0040
     16 C          62.0855   88.6656   11.0174 C.3     1  UNL1        0.0038
     17 C          62.3339   90.1298   11.2283 C.3     1  UNL1        0.0003
     18 C          63.1934   90.5880   12.3690 C.3     1  UNL1        0.0000
     19 C          63.8047   89.5820   13.2988 C.3     1  UNL1        0.0000
     20 C          64.1404   91.0051   13.6335 C.3     1  UNL1        0.0000
     21 H          58.3343   87.6035    5.9557 H       1  UNL1        0.2103
     22 C          65.1876   91.0285   15.0709 C.3     1  UNL1        0.0000
     23 C          64.3450   91.7908   16.0500 C.3     1  UNL1        0.0000
     24 C          66.5289   91.5609   14.6617 C.3     1  UNL1        0.0000
     25 C          66.6218   92.8316   13.8701 C.3     1  UNL1        0.0000
     26 C          66.8677   92.7778   12.3914 C.3     1  UNL1        0.0000
     27 C          66.0250   93.5985   11.4606 C.3     1  UNL1        0.0000
     28 C          65.0184   92.9288   10.5727 C.3     1  UNL1        0.0000
     29 C          66.1889   95.0889   11.4177 C.3     1  UNL1        0.0000
     30 C          68.3493   92.0108   10.3998 C.3     1  UNL1        0.0000
     31 C          67.9562   91.9033   11.8434 C.3     1  UNL1        0.0000
@<TRIPOS>BOND
     1    30    31    1
     2    26    31    1
     3    26    25    1
     4    25    24    1
     5    24    22    1
     6    22    23    1
     7    22     1    1
     8     1     2    1
     9     2     3    1
    10     4     3    1
    11     4     5    1
    12     5     6    1
    13     6     7    1
    14     7     8    2
    15     8     9    1
    16     9    10    1
    17    10    11    1
    18    10    12    1
    19    12    13    1
    20    13    14    1
    21    14    15    1
    22    14    16    1
    23    16    17    1
    24    17    18    1
    25    18    19    1
    26    19    20    1
    27    26    27    1
    28    27    28    1
    29    27    29    1
    30    19     1    1
    31    19     4    1
    32    16     5    1
    33    14     8    1
    34    11    21    1
@<TRIPOS>MOLECULE
*****
 31 34 0 0 0
SMALL
GASTEIGER

@<TRIPOS>ATOM
      1 C          61.7212   89.5284   10.8606 C.3     1  UNL1        0.0000
      2 C          61.8494   90.3512    9.6130 C.3     1  UNL1        0.0000
      3 C          62.9325   91.3648    9.8356 C.3     1  UNL1        0.0000
      4 C          63.4736   91.1684   11.2207 C.3     1  UNL1        0.0003
      5 C          64.5513   91.8764   11.9870 C.3     1  UNL1        0.0046
      6 C          65.3000   93.0114   11.3535 C.3     1  UNL1        0.0254
      7 C          66.3777   93.7194   12.1198 C.2     1  UNL1       -0.0345
      8 C          66.7068   93.2925   13.5197 C.2     1  UNL1       -0.0467
      9 C          67.7845   94.0005   14.2860 C.3     1  UNL1        0.0509
     10 C          68.1135   93.5735   15.6857 C.3     1  UNL1        0.1145
     11 O          69.1913   94.2816   16.4521 O.3     1  UNL1       -0.3841
     12 C          67.3648   92.4386   16.3192 C.3     1  UNL1        0.0299
     13 C          66.2871   91.7305   15.5529 C.3     1  UNL1        0.0062
     14 C          65.9581   92.1575   14.1532 C.3     1  UNL1        0.0150
     15 C          65.2094   91.0225   14.7867 C.3     1  UNL1        0.0040
     16 C          64.8803   91.4495   13.3868 C.3     1  UNL1        0.0038
     17 C          64.1317   90.3145   14.0203 C.3     1  UNL1        0.0003
     18 C          63.0540   89.6065   13.2540 C.3     1  UNL1        0.0000
     19 C          62.7249   90.0334   11.8542 C.3     1  UNL1        0.0000
     20 C          61.8955   88.8877   12.3535 C.3     1  UNL1        0.0000
     21 H          69.2758   93.8844   17.3330 H       1  UNL1        0.2103
     22 C          60.7581   88.3988   11.0766 C.3     1  UNL1        0.0000
     23 C          59.5011   88.6248   11.8632 C.3     1  UNL1        0.0000
     24 C          61.0521   87.0432   10.5058 C.3     1  UNL1        0.0000
     25 C          61.8323   86.9193    9.2307 C.3     1  UNL1        0.0000
     26 C          61.3903   85.9531    8.1719 C.3     1  UNL1        0.0000
     27 C          62.3549   84.9390    7.6322 C.3     1  UNL1        0.0000
     28 C          62.2408   84.4784    6.2092 C.3     1  UNL1        0.0000
     29 C          63.4335   84.3854    8.5155 C.3     1  UNL1        0.0000
     30 C          59.2096   87.2847    7.7015 C.3     1  UNL1        0.0000
     31 C          59.9839   86.0009    7.6527 C.3     1  UNL1        0.0000
@<TRIPOS>BOND
     1    30    31    1
     2    26    31    1
     3    26    25    1
     4    25    24    1
     5    24    22    1
     6    22    23    1
     7    22     1    1
     8     1     2    1
     9     2     3    1
    10     4     3    1
    11     4     5    1
    12     5     6    1
    13     6     7    1
    14     7     8    2
    15     8     9    1
    16     9    10    1
    17    10    11    1
    18    10    12    1
    19    12    13    1
    20    13    14    1
    21    14    15    1
    22    14    16    1
    23    16    17    1
    24    17    18    1
    25    18    19    1
    26    19    20    1
    27    26    27    1
    28    27    28    1
    29    27    29    1
    30    19     1    1
    31    19     4    1
    32    16     5    1
    33    14     8    1
    34    11    21    1
@<TRIPOS>MOLECULE
*****
 31 34 0 0 0
SMALL
GASTEIGER

@<TRIPOS>ATOM
      1 C          62.9238   85.4634   13.5392 C.3     1  UNL1        0.0000
      2 C          62.1675   85.3478   12.2490 C.3     1  UNL1        0.0000
      3 C          62.2897   86.6538   11.5215 C.3     1  UNL1        0.0000
      4 C          63.1214   87.5766   12.3620 C.3     1  UNL1        0.0003
      5 C          63.5727   88.9918   12.1529 C.3     1  UNL1        0.0046
      6 C          63.1807   89.7275   10.9059 C.3     1  UNL1        0.0254
      7 C          63.6319   91.1426   10.6968 C.2     1  UNL1       -0.0345
      8 C          64.4751   91.8222   11.7348 C.2     1  UNL1       -0.0467
      9 C          64.9262   93.2373   11.5258 C.3     1  UNL1        0.0509
     10 C          65.7693   93.9167   12.5637 C.3     1  UNL1        0.1145
     11 O          66.2206   95.3320   12.3547 O.3     1  UNL1       -0.3841
     12 C          66.1613   93.1811   13.8108 C.3     1  UNL1        0.0299
     13 C          65.7101   91.7659   14.0199 C.3     1  UNL1        0.0062
     14 C          64.8670   91.0865   12.9819 C.3     1  UNL1        0.0150
     15 C          65.2589   90.3508   14.2289 C.3     1  UNL1        0.0040
     16 C          64.4158   89.6712   13.1909 C.3     1  UNL1        0.0038
     17 C          64.8077   88.9355   14.4380 C.3     1  UNL1        0.0003
     18 C          64.3565   87.5204   14.6470 C.3     1  UNL1        0.0000
     19 C          63.5133   86.8409   13.6090 C.3     1  UNL1        0.0000
     20 C          63.8251   85.9829   14.7993 C.3     1  UNL1        0.0000
     21 H          66.7525   95.6172   13.1140 H       1  UNL1        0.2103
     22 C          63.0656   84.3900   14.5773 C.3     1  UNL1        0.0000
     23 C          62.0956   84.3180   15.7192 C.3     1  UNL1        0.0000
     24 C          64.1774   83.3885   14.4735 C.3     1  UNL1        0.0000
     25 C          64.5596   82.8282   13.1356 C.3     1  UNL1        0.0000
     26 C          63.6783   81.8150   12.4673 C.3     1  UNL1        0.0000
     27 C          63.5550   81.7978   10.9725 C.3     1  UNL1        0.0000
     28 C          62.9906   80.5927   10.2802 C.3     1  UNL1        0.0000
     29 C          63.9962   82.9857   10.1698 C.3     1  UNL1        0.0000
     30 C          61.5010   81.0989   13.6907 C.3     1  UNL1        0.0000
     31 C          62.9202   80.8189   13.2938 C.3     1  UNL1        0.0000
@<TRIPOS>BOND
     1    30    31    1
     2    26    31    1
     3    26    25    1
     4    25    24    1
     5    24    22    1
     6    22    23    1
     7    22     1    1
     8     1     2    1
     9     2     3    1
    10     4     3    1
    11     4     5    1
    12     5     6    1
    13     6     7    1
    14     7     8    2
    15     8     9    1
    16     9    10    1
    17    10    11    1
    18    10    12    1
    19    12    13    1
    20    13    14    1
    21    14    15    1
    22    14    16    1
    23    16    17    1
    24    17    18    1
    25    18    19    1
    26    19    20    1
    27    26    27    1
    28    27    28    1
    29    27    29    1
    30    19     1    1
    31    19     4    1
    32    16     5    1
    33    14     8    1
    34    11    21    1
