@<TRIPOS>MOLECULE
*****
 33 37 0 0 0
SMALL
GASTEIGER

@<TRIPOS>ATOM
      1 C          61.0617   95.1123   -2.3268 C.3     1  UNL1        0.1272
      2 C          62.4257   94.9142   -2.9186 C.2     1  UNL1        0.0260
      3 C          63.8869   94.8172   -2.5940 C.2     1  UNL1        0.0757
      4 N          64.6327   94.5936   -3.8762 N.2     1  UNL1       -0.1569
      5 N          63.6324   94.5525   -4.9932 N.2     1  UNL1       -0.1631
      6 C          62.2684   94.7506   -4.4014 C.3     1  UNL1        0.2225
      7 C          60.8071   94.8477   -4.7260 C.2     1  UNL1        0.2581
      8 O          60.1985   94.7401   -6.0928 O.2     1  UNL1       -0.2720
      9 N          60.0613   95.0712   -3.4438 N.am    1  UNL1       -0.2508
     10 C          60.2028   94.1832   -0.0577 C.ar    1  UNL1        0.1366
     11 C          59.8934   94.3867    1.3959 C.ar    1  UNL1        0.0366
     12 C          60.1335   95.7229    2.0339 C.ar    1  UNL1        0.0031
     13 C          60.6830   96.8555    1.2183 C.ar    1  UNL1       -0.0001
     14 C          60.9924   96.6520   -0.2353 C.ar    1  UNL1        0.0007
     15 C          60.7523   95.3158   -0.8733 C.ar    1  UNL1        0.0340
     16 C          60.5117   91.6035   -0.0613 C.3     1  UNL1        0.2525
     17 O          59.9627   92.8470   -0.6956 O.3     1  UNL1       -0.4717
     18 C          58.5761   95.2264   -3.3034 C.ar    1  UNL1        0.0544
     19 C          57.9613   96.5947   -3.3057 C.ar    1  UNL1        0.0151
     20 C          56.4761   96.7499   -3.1652 C.ar    1  UNL1        0.0060
     21 C          55.6054   95.5367   -3.0224 C.ar    1  UNL1        0.0562
     22 C          56.2200   94.1685   -3.0201 C.ar    1  UNL1        0.0060
     23 C          57.7054   94.0133   -3.1606 C.ar    1  UNL1        0.0151
     24 C          54.1201   95.6919   -2.8819 C.ar    1  UNL1        0.2597
     25 N          53.1704   96.1060   -3.9667 N.ar    1  UNL1       -0.1911
     26 C          51.7870   96.1303   -3.3873 C.ar    1  UNL1        0.1812
     27 C          50.5297   96.4904   -4.1217 C.3     1  UNL1        0.0773
     28 N          51.8818   95.7313   -1.9444 N.ar    1  UNL1       -0.0602
     29 O          53.3237   95.4604   -1.6321 O.2     1  UNL1       -0.3328
     30 C          64.4956   94.9248   -1.2273 C.3     1  UNL1        0.0367
     31 C          65.0483   96.2739   -1.5796 C.3     1  UNL1        0.0060
     32 C          63.9428   93.5756   -0.8749 C.3     1  UNL1        0.0060
     33 C          65.1042   95.0323    0.1395 C.3     1  UNL1        0.0060
@<TRIPOS>BOND
     1    16    17    1
     2    17    10    1
     3    10    11   ar
     4    11    12   ar
     5    12    13   ar
     6    13    14   ar
     7    14    15   ar
     8    15     1    1
     9     1     2    1
    10     2     3    2
    11     3    30    1
    12    30    31    1
    13    30    32    1
    14    30    33    1
    15     3     4    1
    16     4     5    2
    17     5     6    1
    18     6     7    1
    19     7     8    2
    20     7     9   am
    21     9    18    1
    22    18    19   ar
    23    19    20   ar
    24    20    21   ar
    25    21    24    1
    26    24    25   ar
    27    25    26   ar
    28    26    27    1
    29    26    28   ar
    30    28    29   ar
    31    21    22   ar
    32    22    23   ar
    33    15    10   ar
    34     9     1    1
    35    23    18   ar
    36     6     2    1
    37    29    24   ar
@<TRIPOS>MOLECULE
*****
 33 37 0 0 0
SMALL
GASTEIGER

@<TRIPOS>ATOM
      1 C          62.9391   87.3653   12.0520 C.3     1  UNL1        0.1272
      2 C          63.3507   88.7055   12.5854 C.2     1  UNL1        0.0260
      3 C          63.2791   90.1835   12.3397 C.2     1  UNL1        0.0757
      4 N          64.0167   90.8739   13.4485 N.2     1  UNL1       -0.1569
      5 N          64.5440   89.8226   14.3795 N.2     1  UNL1       -0.1631
      6 C          64.1324   88.4824   13.8461 C.3     1  UNL1        0.2225
      7 C          64.2039   87.0044   14.0918 C.2     1  UNL1        0.2581
      8 O          64.8922   86.3344   15.2439 O.2     1  UNL1       -0.2720
      9 N          63.4664   86.3139   12.9829 N.am    1  UNL1       -0.2508
     10 C          60.6725   87.4278   10.7835 C.ar    1  UNL1        0.1366
     11 C          59.8738   87.1820    9.5378 C.ar    1  UNL1        0.0366
     12 C          60.5430   86.6280    8.3149 C.ar    1  UNL1        0.0031
     13 C          62.0108   86.3198    8.3378 C.ar    1  UNL1       -0.0001
     14 C          62.8095   86.5656    9.5835 C.ar    1  UNL1        0.0007
     15 C          62.1404   87.1196   10.8064 C.ar    1  UNL1        0.0340
     16 C          58.7894   88.8519   11.8679 C.3     1  UNL1        0.2525
     17 O          60.0034   87.9818   12.0064 O.3     1  UNL1       -0.4717
     18 C          63.2876   84.8324   12.8317 C.ar    1  UNL1        0.0544
     19 C          63.8735   84.1233   11.6467 C.ar    1  UNL1        0.0151
     20 C          63.6947   82.6418   11.4954 C.ar    1  UNL1        0.0060
     21 C          62.9300   81.8691   12.5291 C.ar    1  UNL1        0.0562
     22 C          62.3442   82.5781   13.7141 C.ar    1  UNL1        0.0060
     23 C          62.5230   84.0598   13.8653 C.ar    1  UNL1        0.0151
     24 C          62.7513   80.3875   12.3778 C.ar    1  UNL1        0.2597
     25 N          62.9794   79.5954   11.1246 N.ar    1  UNL1       -0.1911
     26 C          62.6821   78.1563   11.4254 C.ar    1  UNL1        0.1812
     27 C          62.7795   77.0148   10.4571 C.3     1  UNL1        0.0773
     28 N          62.2703   78.0590   12.8645 N.ar    1  UNL1       -0.0602
     29 O          62.3130   79.4380   13.4531 O.2     1  UNL1       -0.3328
     30 C          62.5909   90.8534   11.1876 C.3     1  UNL1        0.0367
     31 C          61.2758   90.7224   11.8969 C.3     1  UNL1        0.0060
     32 C          63.9061   90.9845   10.4782 C.3     1  UNL1        0.0060
     33 C          61.9027   91.5234   10.0354 C.3     1  UNL1        0.0060
@<TRIPOS>BOND
     1    16    17    1
     2    17    10    1
     3    10    11   ar
     4    11    12   ar
     5    12    13   ar
     6    13    14   ar
     7    14    15   ar
     8    15     1    1
     9     1     2    1
    10     2     3    2
    11     3    30    1
    12    30    31    1
    13    30    32    1
    14    30    33    1
    15     3     4    1
    16     4     5    2
    17     5     6    1
    18     6     7    1
    19     7     8    2
    20     7     9   am
    21     9    18    1
    22    18    19   ar
    23    19    20   ar
    24    20    21   ar
    25    21    24    1
    26    24    25   ar
    27    25    26   ar
    28    26    27    1
    29    26    28   ar
    30    28    29   ar
    31    21    22   ar
    32    22    23   ar
    33    15    10   ar
    34     9     1    1
    35    23    18   ar
    36     6     2    1
    37    29    24   ar
@<TRIPOS>MOLECULE
*****
 33 37 0 0 0
SMALL
GASTEIGER

@<TRIPOS>ATOM
      1 C          63.0249   87.8419   12.3666 C.3     1  UNL1        0.1272
      2 C          63.6744   89.1541   12.6927 C.2     1  UNL1        0.0260
      3 C          63.8819   90.5587   12.2092 C.2     1  UNL1        0.0757
      4 N          64.7252   91.2772   13.2204 N.2     1  UNL1       -0.1569
      5 N          65.0390   90.3166   14.3289 N.2     1  UNL1       -0.1631
      6 C          64.3895   89.0044   14.0027 C.3     1  UNL1        0.2225
      7 C          64.1821   87.5997   14.4863 C.2     1  UNL1        0.2581
      8 O          64.7230   87.0160   15.7578 O.2     1  UNL1       -0.2720
      9 N          63.3386   86.8812   13.4751 N.am    1  UNL1       -0.2508
     10 C          60.7259   87.7888   11.1575 C.ar    1  UNL1        0.1366
     11 C          59.9065   87.4897    9.9371 C.ar    1  UNL1        0.0366
     12 C          60.5669   86.9446    8.7055 C.ar    1  UNL1        0.0031
     13 C          62.0465   86.6986    8.6942 C.ar    1  UNL1       -0.0001
     14 C          62.8659   86.9977    9.9147 C.ar    1  UNL1        0.0007
     15 C          62.2056   87.5428   11.1463 C.ar    1  UNL1        0.0340
     16 C          58.8304   89.1763   12.2676 C.3     1  UNL1        0.2525
     17 O          60.0656   88.3339   12.3891 O.3     1  UNL1       -0.4717
     18 C          62.8881   85.4529   13.5578 C.ar    1  UNL1        0.0544
     19 C          62.4303   84.8856   14.8688 C.ar    1  UNL1        0.0151
     20 C          61.9798   83.4573   14.9515 C.ar    1  UNL1        0.0060
     21 C          61.9871   82.5961   13.7233 C.ar    1  UNL1        0.0562
     22 C          62.4449   83.1634   12.4123 C.ar    1  UNL1        0.0060
     23 C          62.8954   84.5918   12.3296 C.ar    1  UNL1        0.0151
     24 C          61.5366   81.1678   13.8061 C.ar    1  UNL1        0.2597
     25 N          60.1708   80.6961   14.2090 N.ar    1  UNL1       -0.1911
     26 C          60.1628   79.1971   14.1524 C.ar    1  UNL1        0.1812
     27 C          58.9985   78.3088   14.4767 C.3     1  UNL1        0.0773
     28 N          61.5236   78.7426   13.7146 N.ar    1  UNL1       -0.0602
     29 O          62.3726   79.9605   13.5005 O.2     1  UNL1       -0.3328
     30 C          63.3409   91.1425   10.9377 C.3     1  UNL1        0.0367
     31 C          61.9514   90.7596   11.3531 C.3     1  UNL1        0.0060
     32 C          64.7305   91.5253   10.5223 C.3     1  UNL1        0.0060
     33 C          62.8000   91.7262    9.6662 C.3     1  UNL1        0.0060
@<TRIPOS>BOND
     1    16    17    1
     2    17    10    1
     3    10    11   ar
     4    11    12   ar
     5    12    13   ar
     6    13    14   ar
     7    14    15   ar
     8    15     1    1
     9     1     2    1
    10     2     3    2
    11     3    30    1
    12    30    31    1
    13    30    32    1
    14    30    33    1
    15     3     4    1
    16     4     5    2
    17     5     6    1
    18     6     7    1
    19     7     8    2
    20     7     9   am
    21     9    18    1
    22    18    19   ar
    23    19    20   ar
    24    20    21   ar
    25    21    24    1
    26    24    25   ar
    27    25    26   ar
    28    26    27    1
    29    26    28   ar
    30    28    29   ar
    31    21    22   ar
    32    22    23   ar
    33    15    10   ar
    34     9     1    1
    35    23    18   ar
    36     6     2    1
    37    29    24   ar
@<TRIPOS>MOLECULE
*****
 33 37 0 0 0
SMALL
GASTEIGER

@<TRIPOS>ATOM
      1 C          63.1434   85.2468   13.3645 C.3     1  UNL1        0.1272
      2 C          62.8579   84.1485   14.3455 C.2     1  UNL1        0.0260
      3 C          62.5219   82.6922   14.4728 C.2     1  UNL1        0.0757
      4 N          62.3959   82.3715   15.9326 N.2     1  UNL1       -0.1569
      5 N          62.6540   83.6296   16.7076 N.2     1  UNL1       -0.1631
      6 C          62.9395   84.7279   15.7266 C.3     1  UNL1        0.2225
      7 C          63.2755   86.1842   15.5993 C.2     1  UNL1        0.2581
      8 O          63.4542   87.1502   16.7329 O.2     1  UNL1       -0.2720
      9 N          63.4015   86.5050   14.1394 N.am    1  UNL1       -0.2508
     10 C          62.1363   85.8137   11.0376 C.ar    1  UNL1        0.1366
     11 C          62.1597   85.6777    9.5439 C.ar    1  UNL1        0.0366
     12 C          63.2134   84.8389    8.8835 C.ar    1  UNL1        0.0031
     13 C          64.2438   84.1361    9.7168 C.ar    1  UNL1       -0.0001
     14 C          64.2204   84.2721   11.2105 C.ar    1  UNL1        0.0007
     15 C          63.1667   85.1108   11.8709 C.ar    1  UNL1        0.0340
     16 C          60.2291   87.5703   10.8738 C.3     1  UNL1        0.2525
     17 O          61.0826   86.6524   11.6979 O.3     1  UNL1       -0.4717
     18 C          63.7283   87.8479   13.5568 C.ar    1  UNL1        0.0544
     19 C          64.5959   88.8052   14.3190 C.ar    1  UNL1        0.0151
     20 C          64.9227   90.1482   13.7363 C.ar    1  UNL1        0.0060
     21 C          64.3818   90.5340   12.3914 C.ar    1  UNL1        0.0562
     22 C          63.5142   89.5768   11.6292 C.ar    1  UNL1        0.0060
     23 C          63.1874   88.2337   12.2119 C.ar    1  UNL1        0.0151
     24 C          64.7086   91.8771   11.8088 C.ar    1  UNL1        0.2597
     25 N          65.4592   92.9780   12.4977 N.ar    1  UNL1       -0.1911
     26 C          65.5566   94.1363   11.5497 C.ar    1  UNL1        0.1812
     27 C          66.2268   95.4492   11.8276 C.3     1  UNL1        0.0773
     28 N          64.8663   93.7512   10.2748 N.ar    1  UNL1       -0.0602
     29 O          64.3422   92.3549   10.4350 O.2     1  UNL1       -0.3328
     30 C          62.3432   81.7262   13.3392 C.3     1  UNL1        0.0367
     31 C          60.8941   81.5755   13.6960 C.3     1  UNL1        0.0060
     32 C          63.7924   81.8768   12.9824 C.3     1  UNL1        0.0060
     33 C          62.1646   80.7602   12.2057 C.3     1  UNL1        0.0060
@<TRIPOS>BOND
     1    16    17    1
     2    17    10    1
     3    10    11   ar
     4    11    12   ar
     5    12    13   ar
     6    13    14   ar
     7    14    15   ar
     8    15     1    1
     9     1     2    1
    10     2     3    2
    11     3    30    1
    12    30    31    1
    13    30    32    1
    14    30    33    1
    15     3     4    1
    16     4     5    2
    17     5     6    1
    18     6     7    1
    19     7     8    2
    20     7     9   am
    21     9    18    1
    22    18    19   ar
    23    19    20   ar
    24    20    21   ar
    25    21    24    1
    26    24    25   ar
    27    25    26   ar
    28    26    27    1
    29    26    28   ar
    30    28    29   ar
    31    21    22   ar
    32    22    23   ar
    33    15    10   ar
    34     9     1    1
    35    23    18   ar
    36     6     2    1
    37    29    24   ar
@<TRIPOS>MOLECULE
*****
 33 37 0 0 0
SMALL
GASTEIGER

@<TRIPOS>ATOM
      1 C          55.7665   95.5862   -3.2648 C.3     1  UNL1        0.1272
      2 C          54.3717   96.0711   -3.5283 C.2     1  UNL1        0.0260
      3 C          53.3802   96.3856   -4.6090 C.2     1  UNL1        0.0757
      4 N          52.1149   96.8557   -3.9547 N.2     1  UNL1       -0.1569
      5 N          52.3245   96.8317   -2.4695 N.2     1  UNL1       -0.1631
      6 C          53.7193   96.3468   -2.2060 C.3     1  UNL1        0.2225
      7 C          54.7108   96.0323   -1.1253 C.2     1  UNL1        0.2581
      8 O          54.4780   96.1646    0.3506 O.2     1  UNL1       -0.2720
      9 N          55.9761   95.5622   -1.7797 N.am    1  UNL1       -0.2508
     10 C          56.7594   93.8087   -4.8787 C.ar    1  UNL1        0.1366
     11 C          57.7677   93.4167   -5.9178 C.ar    1  UNL1        0.0366
     12 C          58.7912   94.4100   -6.3822 C.ar    1  UNL1        0.0031
     13 C          58.8065   95.7955   -5.8074 C.ar    1  UNL1       -0.0001
     14 C          57.7982   96.1875   -4.7682 C.ar    1  UNL1        0.0007
     15 C          56.7747   95.1942   -4.3039 C.ar    1  UNL1        0.0340
     16 C          55.9869   91.3460   -4.5817 C.3     1  UNL1        0.2525
     17 O          55.7359   92.8153   -4.4143 O.3     1  UNL1       -0.4717
     18 C          57.2306   95.1420   -1.0730 C.ar    1  UNL1        0.0544
     19 C          58.1633   96.1787   -0.5201 C.ar    1  UNL1        0.0151
     20 C          59.4178   95.7584    0.1865 C.ar    1  UNL1        0.0060
     21 C          59.7398   94.3014    0.3404 C.ar    1  UNL1        0.0562
     22 C          58.8073   93.2647   -0.2124 C.ar    1  UNL1        0.0060
     23 C          57.5527   93.6851   -0.9191 C.ar    1  UNL1        0.0151
     24 C          60.9944   93.8812    1.0471 C.ar    1  UNL1        0.2597
     25 N          61.2095   92.5809    1.7633 N.ar    1  UNL1       -0.1911
     26 C          62.6022   92.5835    2.3205 C.ar    1  UNL1        0.1812
     27 C          63.2377   91.4783    3.1108 C.3     1  UNL1        0.0773
     28 N          63.2477   93.8854    1.9487 N.ar    1  UNL1       -0.0602
     29 O          62.2541   94.6874    1.1617 O.2     1  UNL1       -0.3328
     30 C          53.6130   96.2533   -6.0849 C.3     1  UNL1        0.0367
     31 C          54.9783   96.8533   -5.9233 C.3     1  UNL1        0.0060
     32 C          52.2478   95.6533   -6.2465 C.3     1  UNL1        0.0060
     33 C          53.8458   96.1209   -7.5608 C.3     1  UNL1        0.0060
@<TRIPOS>BOND
     1    16    17    1
     2    17    10    1
     3    10    11   ar
     4    11    12   ar
     5    12    13   ar
     6    13    14   ar
     7    14    15   ar
     8    15     1    1
     9     1     2    1
    10     2     3    2
    11     3    30    1
    12    30    31    1
    13    30    32    1
    14    30    33    1
    15     3     4    1
    16     4     5    2
    17     5     6    1
    18     6     7    1
    19     7     8    2
    20     7     9   am
    21     9    18    1
    22    18    19   ar
    23    19    20   ar
    24    20    21   ar
    25    21    24    1
    26    24    25   ar
    27    25    26   ar
    28    26    27    1
    29    26    28   ar
    30    28    29   ar
    31    21    22   ar
    32    22    23   ar
    33    15    10   ar
    34     9     1    1
    35    23    18   ar
    36     6     2    1
    37    29    24   ar
