@<TRIPOS>MOLECULE
*****
 39 42 0 0 0
SMALL
GASTEIGER

@<TRIPOS>ATOM
      1 C          62.8133   83.2470   12.7965 C.ar    1  UNL1        0.0512
      2 C          62.3394   84.1920   11.7324 C.ar    1  UNL1        0.0145
      3 C          62.6048   85.6626   11.8629 C.ar    1  UNL1        0.0005
      4 C          63.3441   86.1881   13.0576 C.ar    1  UNL1        0.0182
      5 C          63.8180   85.2431   14.1217 C.ar    1  UNL1       -0.0211
      6 C          63.5526   83.7725   13.9911 C.ar    1  UNL1        0.0103
      7 C          64.5162   86.0471   15.1783 C.3     1  UNL1        0.0307
      8 C          64.4737   87.4890   14.7671 C.3     1  UNL1        0.0583
      9 C          63.7494   87.5761   13.4565 C.3     1  UNL1        0.2242
     10 O          63.0250   87.6633   12.1458 O.3     1  UNL1       -0.4283
     11 C          62.9826   89.1052   11.7347 C.2     1  UNL1        0.4117
     12 O          62.3526   89.6479   10.4862 O.2     1  UNL1       -0.2257
     13 N          63.6807   89.9092   12.7912 N.am    1  UNL1       -0.1834
     14 C          64.1546   88.9642   13.8553 C.2     1  UNL1        0.2747
     15 O          64.9024   89.3410   15.0998 O.2     1  UNL1       -0.2702
     16 C          63.0369   78.8635   10.0153 C.3     1  UNL1        0.1122
     17 N          62.6597   79.5847   11.2754 N.am    1  UNL1       -0.2869
     18 C          62.9251   81.0552   11.4059 C.2     1  UNL1        0.3045
     19 O          63.5677   81.8046   10.2765 O.2     1  UNL1       -0.2525
     20 N          62.5479   81.7765   12.6659 N.am    1  UNL1       -0.2683
     21 H          62.2379   79.0929   12.0166 H       1  UNL1        0.1510
     22 H          62.1262   81.2847   13.4072 H       1  UNL1        0.1564
     23 C          63.8714   91.3970   12.7847 C.3     1  UNL1        0.1893
     24 C          64.8398   92.0249   11.8266 C.2     1  UNL1        0.2469
     25 O          64.5076   92.0997   10.3658 O.2     1  UNL1       -0.2730
     26 N          66.1403   92.5780   12.3293 N.am    1  UNL1       -0.2678
     27 C          66.4725   92.5032   13.7901 C.3     1  UNL1        0.1708
     28 C          65.3718   92.4387   14.8072 C.3     1  UNL1        0.0306
     29 C          67.9053   92.4930   14.2339 C.3     1  UNL1        0.4138
     30 F          69.3381   92.4828   14.6777 F       1  UNL1       -0.1682
     31 F          67.6718   93.7510   15.0168 F       1  UNL1       -0.1682
     32 F          68.1388   91.2351   13.4510 F       1  UNL1       -0.1682
     33 C          67.1087   93.2059   11.3711 C.3     1  UNL1        0.1204
     34 C          66.7087   94.4222   10.5898 C.ar    1  UNL1       -0.0023
     35 C          65.8990   95.5016   11.2449 C.ar    1  UNL1       -0.0026
     36 C          65.4989   96.7179   10.4636 C.ar    1  UNL1       -0.0003
     37 C          65.9086   96.8549    9.0272 C.ar    1  UNL1       -0.0000
     38 C          66.7184   95.7755    8.3721 C.ar    1  UNL1       -0.0003
     39 C          67.1184   94.5592    9.1534 C.ar    1  UNL1       -0.0026
@<TRIPOS>BOND
     1    16    17    1
     2    17    18   am
     3    18    19    2
     4    18    20   am
     5    20     1    1
     6     1     2   ar
     7     2     3   ar
     8     3     4   ar
     9     4     5   ar
    10     5     6   ar
    11     5     7    1
    12     7     8    1
    13     9     8    1
    14     9    10    1
    15    10    11    1
    16    11    12    2
    17    11    13   am
    18    13    23    1
    19    23    24    1
    20    24    25    2
    21    24    26   am
    22    26    33    1
    23    33    34    1
    24    34    35   ar
    25    35    36   ar
    26    36    37   ar
    27    37    38   ar
    28    38    39   ar
    29    26    27    1
    30    27    28    1
    31    27    29    1
    32    29    30    1
    33    29    31    1
    34    29    32    1
    35    13    14   am
    36    14    15    2
    37     6     1   ar
    38    14     9    1
    39     9     4    1
    40    39    34   ar
    41    17    21    1
    42    20    22    1
@<TRIPOS>MOLECULE
*****
 39 42 0 0 0
SMALL
GASTEIGER

@<TRIPOS>ATOM
      1 C          62.7276   83.0751   12.4399 C.ar    1  UNL1        0.0512
      2 C          62.2260   84.1413   11.5117 C.ar    1  UNL1        0.0145
      3 C          62.5181   85.5842   11.7994 C.ar    1  UNL1        0.0005
      4 C          63.3117   85.9609   13.0152 C.ar    1  UNL1        0.0182
      5 C          63.8132   84.8947   13.9434 C.ar    1  UNL1       -0.0211
      6 C          63.5212   83.4518   13.6558 C.ar    1  UNL1        0.0103
      7 C          64.5643   85.5643   15.0559 C.3     1  UNL1        0.0307
      8 C          64.5270   87.0443   14.8152 C.3     1  UNL1        0.0583
      9 C          63.7528   87.2894   13.5540 C.3     1  UNL1        0.2242
     10 O          62.9786   87.5346   12.2928 O.3     1  UNL1       -0.4283
     11 C          62.9413   89.0146   12.0521 C.2     1  UNL1        0.4117
     12 O          62.2706   89.7041   10.9011 O.2     1  UNL1       -0.2257
     13 N          63.6924   89.6843   13.1645 N.am    1  UNL1       -0.1834
     14 C          64.1939   88.6180   14.0927 C.2     1  UNL1        0.2747
     15 O          64.9958   88.8412   15.3406 O.2     1  UNL1       -0.2702
     16 C          63.3107   78.8788    9.4314 C.3     1  UNL1        0.1122
     17 N          62.7270   79.5340   10.6481 N.am    1  UNL1       -0.2869
     18 C          63.0191   80.9769   10.9357 C.2     1  UNL1        0.3045
     19 O          63.8948   81.7646   10.0068 O.2     1  UNL1       -0.2525
     20 N          62.4355   81.6322   12.1523 N.am    1  UNL1       -0.2683
     21 H          62.1523   79.0171   11.2577 H       1  UNL1        0.1510
     22 H          61.8608   81.1152   12.7620 H       1  UNL1        0.1564
     23 C          63.9047   91.1609   13.3212 C.3     1  UNL1        0.1893
     24 C          64.2433   92.0010   12.1255 C.2     1  UNL1        0.2469
     25 O          63.4344   91.8770   10.8684 O.2     1  UNL1       -0.2730
     26 N          65.3908   92.9651   12.1870 N.am    1  UNL1       -0.2678
     27 C          66.1997   93.0891   13.4441 C.3     1  UNL1        0.1708
     28 C          66.5405   94.4457   13.9858 C.3     1  UNL1        0.0306
     29 C          66.6677   91.8566   14.1594 C.3     1  UNL1        0.4138
     30 F          67.1357   90.6240   14.8747 F       1  UNL1       -0.1682
     31 F          67.6510   91.5909   13.0582 F       1  UNL1       -0.1682
     32 F          65.6844   92.1223   15.2605 F       1  UNL1       -0.1682
     33 C          65.7294   93.8052   10.9912 C.3     1  UNL1        0.1204
     34 C          66.8299   93.3815   10.0644 C.ar    1  UNL1       -0.0023
     35 C          67.2830   94.3002    8.9686 C.ar    1  UNL1       -0.0026
     36 C          68.3836   93.8765    8.0417 C.ar    1  UNL1       -0.0003
     37 C          69.0311   92.5340    8.2105 C.ar    1  UNL1       -0.0000
     38 C          68.5780   91.6153    9.3062 C.ar    1  UNL1       -0.0003
     39 C          67.4775   92.0390   10.2331 C.ar    1  UNL1       -0.0026
@<TRIPOS>BOND
     1    16    17    1
     2    17    18   am
     3    18    19    2
     4    18    20   am
     5    20     1    1
     6     1     2   ar
     7     2     3   ar
     8     3     4   ar
     9     4     5   ar
    10     5     6   ar
    11     5     7    1
    12     7     8    1
    13     9     8    1
    14     9    10    1
    15    10    11    1
    16    11    12    2
    17    11    13   am
    18    13    23    1
    19    23    24    1
    20    24    25    2
    21    24    26   am
    22    26    33    1
    23    33    34    1
    24    34    35   ar
    25    35    36   ar
    26    36    37   ar
    27    37    38   ar
    28    38    39   ar
    29    26    27    1
    30    27    28    1
    31    27    29    1
    32    29    30    1
    33    29    31    1
    34    29    32    1
    35    13    14   am
    36    14    15    2
    37     6     1   ar
    38    14     9    1
    39     9     4    1
    40    39    34   ar
    41    17    21    1
    42    20    22    1
@<TRIPOS>MOLECULE
*****
 39 42 0 0 0
SMALL
GASTEIGER

@<TRIPOS>ATOM
      1 C          63.0897   83.0940   13.0071 C.ar    1  UNL1        0.0512
      2 C          62.4706   83.9156   11.9155 C.ar    1  UNL1        0.0145
      3 C          62.5994   85.4099   11.9364 C.ar    1  UNL1        0.0005
      4 C          63.3474   86.0827   13.0490 C.ar    1  UNL1        0.0182
      5 C          63.9665   85.2611   14.1406 C.ar    1  UNL1       -0.0211
      6 C          63.8377   83.7668   14.1197 C.ar    1  UNL1        0.0103
      7 C          64.6394   86.1972   15.1005 C.3     1  UNL1        0.0307
      8 C          64.4360   87.5972   14.6020 C.3     1  UNL1        0.0583
      9 C          63.6376   87.5264   13.3341 C.3     1  UNL1        0.2242
     10 O          62.8391   87.4557   12.0662 O.3     1  UNL1       -0.4283
     11 C          62.6358   88.8557   11.5677 C.2     1  UNL1        0.4117
     12 O          61.8905   89.2504   10.3273 O.2     1  UNL1       -0.2257
     13 N          63.3086   89.7918   12.5275 N.am    1  UNL1       -0.1834
     14 C          63.9277   88.9702   13.6191 C.2     1  UNL1        0.2747
     15 O          64.7012   89.4995   14.7903 O.2     1  UNL1       -0.2702
     16 C          62.8516   78.6347   10.3505 C.3     1  UNL1        0.1122
     17 N          62.8418   79.3700   11.6579 N.am    1  UNL1       -0.2869
     18 C          62.9707   80.8644   11.6789 C.2     1  UNL1        0.3045
     19 O          63.1093   81.6233   10.3924 O.2     1  UNL1       -0.2525
     20 N          62.9609   81.5997   12.9862 N.am    1  UNL1       -0.2683
     21 H          62.7508   78.8719   12.5022 H       1  UNL1        0.1510
     22 H          62.8698   81.1016   13.8305 H       1  UNL1        0.1564
     23 C          63.3542   91.2869   12.4153 C.3     1  UNL1        0.1893
     24 C          64.4703   92.0537   13.0604 C.2     1  UNL1        0.2469
     25 O          64.6256   92.0395   14.5522 O.2     1  UNL1       -0.2730
     26 N          65.4311   92.8347   12.2137 N.am    1  UNL1       -0.2678
     27 C          65.2758   92.8489   10.7218 C.3     1  UNL1        0.1708
     28 C          64.1766   92.0596   10.0747 C.3     1  UNL1        0.0306
     29 C          66.2197   93.6523    9.8772 C.3     1  UNL1        0.4138
     30 F          67.1636   94.4558    9.0325 F       1  UNL1       -0.1682
     31 F          65.3603   94.8662   10.0714 F       1  UNL1       -0.1682
     32 F          67.0792   92.4384    9.6829 F       1  UNL1       -0.1682
     33 C          66.5473   93.6016   12.8589 C.3     1  UNL1        0.1204
     34 C          67.2418   93.0427   14.0652 C.ar    1  UNL1       -0.0023
     35 C          67.5175   91.5711   14.1572 C.ar    1  UNL1       -0.0026
     36 C          68.2121   91.0122   15.3636 C.ar    1  UNL1       -0.0003
     37 C          68.6310   91.9248   16.4778 C.ar    1  UNL1       -0.0000
     38 C          68.3553   93.3964   16.3858 C.ar    1  UNL1       -0.0003
     39 C          67.6608   93.9553   15.1795 C.ar    1  UNL1       -0.0026
@<TRIPOS>BOND
     1    16    17    1
     2    17    18   am
     3    18    19    2
     4    18    20   am
     5    20     1    1
     6     1     2   ar
     7     2     3   ar
     8     3     4   ar
     9     4     5   ar
    10     5     6   ar
    11     5     7    1
    12     7     8    1
    13     9     8    1
    14     9    10    1
    15    10    11    1
    16    11    12    2
    17    11    13   am
    18    13    23    1
    19    23    24    1
    20    24    25    2
    21    24    26   am
    22    26    33    1
    23    33    34    1
    24    34    35   ar
    25    35    36   ar
    26    36    37   ar
    27    37    38   ar
    28    38    39   ar
    29    26    27    1
    30    27    28    1
    31    27    29    1
    32    29    30    1
    33    29    31    1
    34    29    32    1
    35    13    14   am
    36    14    15    2
    37     6     1   ar
    38    14     9    1
    39     9     4    1
    40    39    34   ar
    41    17    21    1
    42    20    22    1
@<TRIPOS>MOLECULE
*****
 39 42 0 0 0
SMALL
GASTEIGER

@<TRIPOS>ATOM
      1 C          59.5362   89.2358    7.7017 C.ar    1  UNL1        0.0512
      2 C          60.1575   90.1383    8.7262 C.ar    1  UNL1        0.0145
      3 C          60.9928   89.5582    9.8288 C.ar    1  UNL1        0.0005
      4 C          61.2069   88.0756    9.9069 C.ar    1  UNL1        0.0182
      5 C          60.5857   87.1732    8.8824 C.ar    1  UNL1       -0.0211
      6 C          59.7504   87.7532    7.7799 C.ar    1  UNL1        0.0103
      7 C          60.9700   85.7616    9.2141 C.3     1  UNL1        0.0307
      8 C          61.8287   85.7918   10.4436 C.3     1  UNL1        0.0583
      9 C          61.9751   87.2219   10.8718 C.3     1  UNL1        0.2242
     10 O          62.1216   88.6520   11.2999 O.3     1  UNL1       -0.4283
     11 C          62.9803   88.6822   12.5294 C.2     1  UNL1        0.4117
     12 O          63.3839   89.9085   13.2931 O.2     1  UNL1       -0.2257
     13 N          63.3646   87.2707   12.8611 N.am    1  UNL1       -0.1834
     14 C          62.7434   86.3683   11.8367 C.2     1  UNL1        0.2747
     15 O          62.8684   84.8743   11.7860 O.2     1  UNL1       -0.2702
     16 C          59.1288   92.1665    3.4303 C.3     1  UNL1        0.1122
     17 N          58.4971   91.2812    4.4635 N.am    1  UNL1       -0.2869
     18 C          59.3325   90.7011    5.5661 C.2     1  UNL1        0.3045
     19 O          60.7995   91.0064    5.6355 O.2     1  UNL1       -0.2525
     20 N          58.7009   89.8159    6.5991 N.am    1  UNL1       -0.2683
     21 H          57.5343   91.0809    4.4179 H       1  UNL1        0.1510
     22 H          57.7381   89.6156    6.5536 H       1  UNL1        0.1564
     23 C          64.2199   86.8378   14.0148 C.3     1  UNL1        0.1893
     24 C          64.4798   85.3793   14.2500 C.2     1  UNL1        0.2469
     25 O          65.6152   84.6968   13.5464 O.2     1  UNL1       -0.2730
     26 N          63.6042   84.6033   15.1887 N.am    1  UNL1       -0.2678
     27 C          62.4688   85.2858   15.8923 C.3     1  UNL1        0.1708
     28 C          61.0816   85.2095   15.3267 C.3     1  UNL1        0.0306
     29 C          62.7206   86.0445   17.1615 C.3     1  UNL1        0.4138
     30 F          62.9724   86.8033   18.4307 F       1  UNL1       -0.1682
     31 F          64.1650   85.6424   17.1154 F       1  UNL1       -0.1682
     32 F          61.2763   86.4466   17.2077 F       1  UNL1       -0.1682
     33 C          63.8641   83.1447   15.4239 C.3     1  UNL1        0.1204
     34 C          63.3171   82.1226   14.4723 C.ar    1  UNL1       -0.0023
     35 C          61.9581   81.5320   14.7057 C.ar    1  UNL1       -0.0026
     36 C          61.4110   80.5098   13.7540 C.ar    1  UNL1       -0.0003
     37 C          62.2229   80.0781   12.5689 C.ar    1  UNL1       -0.0000
     38 C          63.5818   80.6686   12.3355 C.ar    1  UNL1       -0.0003
     39 C          64.1289   81.6908   13.2871 C.ar    1  UNL1       -0.0026
@<TRIPOS>BOND
     1    16    17    1
     2    17    18   am
     3    18    19    2
     4    18    20   am
     5    20     1    1
     6     1     2   ar
     7     2     3   ar
     8     3     4   ar
     9     4     5   ar
    10     5     6   ar
    11     5     7    1
    12     7     8    1
    13     9     8    1
    14     9    10    1
    15    10    11    1
    16    11    12    2
    17    11    13   am
    18    13    23    1
    19    23    24    1
    20    24    25    2
    21    24    26   am
    22    26    33    1
    23    33    34    1
    24    34    35   ar
    25    35    36   ar
    26    36    37   ar
    27    37    38   ar
    28    38    39   ar
    29    26    27    1
    30    27    28    1
    31    27    29    1
    32    29    30    1
    33    29    31    1
    34    29    32    1
    35    13    14   am
    36    14    15    2
    37     6     1   ar
    38    14     9    1
    39     9     4    1
    40    39    34   ar
    41    17    21    1
    42    20    22    1
