@<TRIPOS>MOLECULE
*****
 46 51 0 0 0
SMALL
GASTEIGER

@<TRIPOS>ATOM
      1 C          59.2765   96.3680   -3.8246 C.ar    1  UNL1        0.1348
      2 C          60.6007   96.8545   -4.3341 C.ar    1  UNL1        0.0346
      3 C          61.8555   96.5515   -3.5701 C.ar    1  UNL1        0.0065
      4 C          61.7860   95.7620   -2.2965 C.ar    1  UNL1        0.0432
      5 C          60.4617   95.2756   -1.7870 C.ar    1  UNL1        0.1256
      6 N          59.2070   95.5786   -2.5510 N.ar    1  UNL1       -0.2222
      7 C          63.0408   95.4591   -1.5325 C.ar    1  UNL1        0.0851
      8 C          64.2311   94.7097   -2.0536 C.ar    1  UNL1        0.1020
      9 N          65.2516   94.6397   -0.9564 N.ar    1  UNL1       -0.2264
     10 C          64.6919   95.3459    0.2428 C.ar    1  UNL1        0.1474
     11 C          65.2499   95.5933    1.6130 C.ar    1  UNL1        0.0332
     12 C          64.4416   96.3470    2.6271 C.ar    1  UNL1       -0.0174
     13 C          64.9995   96.5944    3.9973 C.3     1  UNL1        0.0312
     14 C          63.0752   96.8534    2.2711 C.ar    1  UNL1        0.0149
     15 C          62.5172   96.6061    0.9009 C.ar    1  UNL1        0.0811
     16 N          63.3256   95.8523   -0.1133 N.ar    1  UNL1       -0.2888
     17 C          64.3757   94.1316   -3.4302 C.ar    1  UNL1        0.0574
     18 C          64.1966   92.6582   -3.6476 C.ar    1  UNL1        0.1033
     19 N          64.3411   92.0802   -5.0242 N.ar    1  UNL1       -0.2291
     20 C          64.6647   92.9755   -6.1834 C.ar    1  UNL1        0.1396
     21 C          64.8093   92.3975   -7.5600 C.3     1  UNL1        0.0737
     22 N          64.8438   94.4488   -5.9660 N.ar    1  UNL1       -0.2291
     23 C          64.6993   95.0268   -4.5894 C.ar    1  UNL1        0.1033
     24 C          57.1926   95.5510   -5.1436 C.2     1  UNL1        0.2414
     25 O          57.6182   94.1279   -4.9345 O.2     1  UNL1       -0.2733
     26 N          58.0217   96.6710   -4.5886 N.am    1  UNL1       -0.2682
     27 H          57.7423   97.6050   -4.7258 H       1  UNL1        0.1563
     28 C          55.9378   95.8540   -5.9076 C.3     1  UNL1        0.1319
     29 C          56.0202   96.3141   -7.3329 C.3     1  UNL1        0.0270
     30 C          54.4671   95.9017   -3.7664 C.3     1  UNL1        0.0862
     31 N          54.6006   95.6969   -5.2463 N.3     1  UNL1       -0.2902
     32 H          53.9708   96.3629   -5.6937 H       1  UNL1        0.1237
     33 C          60.3922   94.4861   -0.5134 C.1     1  UNL1       -0.0404
     34 C          60.3227   93.6968    0.7601 C.1     1  UNL1       -0.0583
     35 C          60.2531   92.9073    2.0337 C.ar    1  UNL1        0.0421
     36 C          61.5153   92.4459    2.7000 C.ar    1  UNL1        0.0097
     37 C          61.4457   91.6565    3.9735 C.ar    1  UNL1        0.0179
     38 C          60.1140   91.3284    4.5808 C.ar    1  UNL1        0.0625
     39 C          58.8518   91.7898    3.9145 C.ar    1  UNL1        0.0166
     40 C          57.5200   91.4617    4.5217 C.ar    1  UNL1        0.0063
     41 C          57.4504   90.6723    5.7952 C.ar    1  UNL1        0.0608
     42 C          58.7126   90.2109    6.4616 C.ar    1  UNL1        0.2610
     43 O          58.6431   89.4215    7.7351 O.2     1  UNL1       -0.2670
     44 N          60.0444   90.5390    5.8544 N.ar    1  UNL1       -0.2935
     45 C          61.3066   90.0776    6.5207 C.3     1  UNL1        0.1335
     46 C          58.9213   92.5792    2.6410 C.ar    1  UNL1        0.0097
@<TRIPOS>BOND
     1    30    31    1
     2    31    28    1
     3    28    29    1
     4    28    24    1
     5    24    25    2
     6    24    26   am
     7    26     1    1
     8     1     2   ar
     9     2     3   ar
    10     3     4   ar
    11     4     7    1
    12     7     8   ar
    13     8    17    1
    14    17    18   ar
    15    18    19   ar
    16    19    20   ar
    17    20    21    1
    18    20    22   ar
    19    22    23   ar
    20     8     9   ar
    21     9    10   ar
    22    10    11   ar
    23    11    12   ar
    24    12    13    1
    25    12    14   ar
    26    14    15   ar
    27    15    16   ar
    28     4     5   ar
    29     5    33    1
    30    33    34    3
    31    34    35    1
    32    35    36   ar
    33    36    37   ar
    34    37    38   ar
    35    38    39   ar
    36    39    40   ar
    37    40    41   ar
    38    41    42   ar
    39    42    43    2
    40    42    44   ar
    41    44    45    1
    42    39    46   ar
    43     5     6   ar
    44     6     1   ar
    45    16     7   ar
    46    46    35   ar
    47    23    17   ar
    48    16    10   ar
    49    44    38   ar
    50    31    32    1
    51    26    27    1
