@<TRIPOS>MOLECULE
*****
 25 27 0 0 0
SMALL
GASTEIGER

@<TRIPOS>ATOM
      1 C          64.6562   91.9019   15.1281 C.2     1  UNL1        0.0412
      2 C          64.2534   90.4928   15.4475 C.2     1  UNL1       -0.0326
      3 C          64.5953   89.3818   14.4994 C.3     1  UNL1        0.0442
      4 C          64.1925   87.9727   14.8187 C.3     1  UNL1        0.0981
      5 N          63.4479   87.6744   16.0863 N.am    1  UNL1       -0.2754
      6 C          63.0451   86.2652   16.4056 C.2     1  UNL1        0.2491
      7 O          62.3005   85.9670   17.6731 O.2     1  UNL1       -0.2699
      8 C          63.1060   88.7853   17.0344 C.3     1  UNL1        0.0981
      9 C          63.5088   90.1945   16.7150 C.3     1  UNL1        0.0442
     10 C          63.3870   85.1543   15.4575 C.ar    1  UNL1        0.0544
     11 C          64.6826   85.1848   14.7023 C.ar    1  UNL1        0.0046
     12 C          65.0245   84.0739   13.7542 C.ar    1  UNL1        0.0010
     13 C          64.0707   82.9324   13.5612 C.ar    1  UNL1        0.0114
     14 C          62.7751   82.9019   14.3164 C.ar    1  UNL1        0.0578
     15 CL         61.8212   81.7604   14.1234 Cl      1  UNL1       -0.0822
     16 C          62.4332   84.0128   15.2645 C.ar    1  UNL1        0.0159
     17 C          66.1455   92.4985   12.5932 C.1     1  UNL1       -0.0405
     18 C          65.4009   92.2002   13.8606 C.1     1  UNL1       -0.0583
     19 C          67.4245   95.8095    8.7983 C.3     1  UNL1        0.0521
     20 C          67.5297   94.4523    9.4282 C.ar    1  UNL1        0.0600
     21 C          68.3794   93.3933    8.7907 C.ar    1  UNL1        0.0148
     22 C          68.4846   92.0361    9.4206 C.ar    1  UNL1        0.0034
     23 C          67.7400   91.7378   10.6881 C.ar    1  UNL1        0.0276
     24 C          66.8902   92.7967   11.3256 C.ar    1  UNL1        0.1224
     25 N          66.7851   94.1540   10.6957 N.ar    1  UNL1       -0.2414
@<TRIPOS>BOND
     1    19    20    1
     2    20    21   ar
     3    21    22   ar
     4    22    23   ar
     5    23    24   ar
     6    24    17    1
     7    17    18    3
     8    18     1    1
     9     1     2    2
    10     2     3    1
    11     3     4    1
    12     4     5    1
    13     5     6   am
    14     6     7    2
    15     6    10    1
    16    10    11   ar
    17    11    12   ar
    18    12    13   ar
    19    13    14   ar
    20    14    15    1
    21    14    16   ar
    22     5     8    1
    23     8     9    1
    24    24    25   ar
    25    25    20   ar
    26     9     2    1
    27    16    10   ar
@<TRIPOS>MOLECULE
*****
 25 27 0 0 0
SMALL
GASTEIGER

@<TRIPOS>ATOM
      1 C          64.4220   91.0516   15.4179 C.2     1  UNL1        0.0412
      2 C          64.0930   89.5898   15.3489 C.2     1  UNL1       -0.0326
      3 C          64.4029   88.8091   14.1061 C.3     1  UNL1        0.0442
      4 C          64.0739   87.3473   14.0371 C.3     1  UNL1        0.0981
      5 N          63.4350   86.6660   15.2110 N.am    1  UNL1       -0.2754
      6 C          63.1061   85.2042   15.1420 C.2     1  UNL1        0.2491
      7 O          62.4672   84.5231   16.3158 O.2     1  UNL1       -0.2699
      8 C          63.1252   87.4467   16.4538 C.3     1  UNL1        0.0981
      9 C          63.4542   88.9086   16.5227 C.3     1  UNL1        0.0442
     10 C          63.4159   84.4236   13.8992 C.ar    1  UNL1        0.0544
     11 C          64.1454   83.1165   13.9969 C.ar    1  UNL1        0.0046
     12 C          64.4552   82.3359   12.7541 C.ar    1  UNL1        0.0010
     13 C          64.0356   82.8622   11.4136 C.ar    1  UNL1        0.0114
     14 C          63.3062   84.1692   11.3160 C.ar    1  UNL1        0.0578
     15 CL         62.8866   84.6956    9.9755 Cl      1  UNL1       -0.0822
     16 C          62.9963   84.9499   12.5588 C.ar    1  UNL1        0.0159
     17 C          65.6997   92.4140   13.0702 C.1     1  UNL1       -0.0405
     18 C          65.0609   91.7328   14.2441 C.1     1  UNL1       -0.0583
     19 C          68.7671   92.2263    8.8803 C.3     1  UNL1        0.0521
     20 C          67.8722   93.0013    9.8014 C.ar    1  UNL1        0.0600
     21 C          67.6163   94.4575    9.5488 C.ar    1  UNL1        0.0148
     22 C          66.7214   95.2326   10.4700 C.ar    1  UNL1        0.0034
     23 C          66.0826   94.5515   11.6438 C.ar    1  UNL1        0.0276
     24 C          66.3385   93.0952   11.8964 C.ar    1  UNL1        0.1224
     25 N          67.2334   92.3202   10.9752 N.ar    1  UNL1       -0.2414
@<TRIPOS>BOND
     1    19    20    1
     2    20    21   ar
     3    21    22   ar
     4    22    23   ar
     5    23    24   ar
     6    24    17    1
     7    17    18    3
     8    18     1    1
     9     1     2    2
    10     2     3    1
    11     3     4    1
    12     4     5    1
    13     5     6   am
    14     6     7    2
    15     6    10    1
    16    10    11   ar
    17    11    12   ar
    18    12    13   ar
    19    13    14   ar
    20    14    15    1
    21    14    16   ar
    22     5     8    1
    23     8     9    1
    24    24    25   ar
    25    25    20   ar
    26     9     2    1
    27    16    10   ar
@<TRIPOS>MOLECULE
*****
 25 27 0 0 0
SMALL
GASTEIGER

@<TRIPOS>ATOM
      1 C          63.5107   88.7929   13.3803 C.2     1  UNL1        0.0412
      2 C          64.2397   90.0993   13.2718 C.2     1  UNL1       -0.0326
      3 C          64.2611   90.8403   11.9678 C.3     1  UNL1        0.0442
      4 C          64.9901   92.1467   11.8594 C.3     1  UNL1        0.0981
      5 N          65.6977   92.7122   13.0550 N.am    1  UNL1       -0.2754
      6 C          66.4267   94.0186   12.9466 C.2     1  UNL1        0.2491
      7 O          67.1344   94.5840   14.1422 O.2     1  UNL1       -0.2699
      8 C          65.6763   91.9712   14.3591 C.3     1  UNL1        0.0981
      9 C          64.9473   90.6647   14.4674 C.3     1  UNL1        0.0442
     10 C          66.4481   94.7596   11.6426 C.ar    1  UNL1        0.0544
     11 C          65.8125   96.1142   11.5392 C.ar    1  UNL1        0.0046
     12 C          65.8339   96.8552   10.2352 C.ar    1  UNL1        0.0010
     13 C          66.4909   96.2415    9.0346 C.ar    1  UNL1        0.0114
     14 C          67.1266   94.8869    9.1379 C.ar    1  UNL1        0.0578
     15 CL         67.7837   94.2731    7.9372 Cl      1  UNL1       -0.0822
     16 C          67.1052   94.1459   10.4420 C.ar    1  UNL1        0.0159
     17 C          62.0953   87.6620   10.9890 C.1     1  UNL1       -0.0405
     18 C          62.8030   88.2274   12.1846 C.1     1  UNL1       -0.0583
     19 C          62.1477   84.7313    6.6985 C.3     1  UNL1        0.0521
     20 C          61.4139   85.6312    7.6481 C.ar    1  UNL1        0.0600
     21 C          59.9725   85.9655    7.4022 C.ar    1  UNL1        0.0148
     22 C          59.2387   86.8653    8.3518 C.ar    1  UNL1        0.0034
     23 C          59.9462   87.4308    9.5474 C.ar    1  UNL1        0.0276
     24 C          61.3876   87.0965    9.7934 C.ar    1  UNL1        0.1224
     25 N          62.1215   86.1966    8.8437 N.ar    1  UNL1       -0.2414
@<TRIPOS>BOND
     1    19    20    1
     2    20    21   ar
     3    21    22   ar
     4    22    23   ar
     5    23    24   ar
     6    24    17    1
     7    17    18    3
     8    18     1    1
     9     1     2    2
    10     2     3    1
    11     3     4    1
    12     4     5    1
    13     5     6   am
    14     6     7    2
    15     6    10    1
    16    10    11   ar
    17    11    12   ar
    18    12    13   ar
    19    13    14   ar
    20    14    15    1
    21    14    16   ar
    22     5     8    1
    23     8     9    1
    24    24    25   ar
    25    25    20   ar
    26     9     2    1
    27    16    10   ar
@<TRIPOS>MOLECULE
*****
 25 27 0 0 0
SMALL
GASTEIGER

@<TRIPOS>ATOM
      1 C          62.6469   85.8896   16.8491 C.2     1  UNL1        0.0412
      2 C          63.1021   87.2640   16.4570 C.2     1  UNL1       -0.0326
      3 C          63.5866   87.5239   15.0614 C.3     1  UNL1        0.0442
      4 C          64.0418   88.8983   14.6693 C.3     1  UNL1        0.0981
      5 N          64.0124   90.0129   15.6728 N.am    1  UNL1       -0.2754
      6 C          64.4675   91.3873   15.2807 C.2     1  UNL1        0.2491
      7 O          64.4381   92.5018   16.2842 O.2     1  UNL1       -0.2699
      8 C          63.5278   89.7530   17.0684 C.3     1  UNL1        0.0981
      9 C          63.0727   88.3785   17.4604 C.3     1  UNL1        0.0442
     10 C          64.9521   91.6472   13.8851 C.ar    1  UNL1        0.0544
     11 C          66.3746   92.0607   13.6499 C.ar    1  UNL1        0.0046
     12 C          66.8592   92.3206   12.2543 C.ar    1  UNL1        0.0010
     13 C          65.9212   92.1671   11.0939 C.ar    1  UNL1        0.0114
     14 C          64.4986   91.7537   11.3291 C.ar    1  UNL1        0.0578
     15 CL         63.5605   91.6001   10.1687 Cl      1  UNL1       -0.0822
     16 C          64.0141   91.4937   12.7247 C.ar    1  UNL1        0.0159
     17 C          62.7057   83.6605   14.8421 C.1     1  UNL1       -0.0405
     18 C          62.6763   84.7750   15.8456 C.1     1  UNL1       -0.0583
     19 C          63.9208   81.8997   10.1068 C.3     1  UNL1        0.0521
     20 C          63.3426   81.6656   11.4709 C.ar    1  UNL1        0.0600
     21 C          62.7939   80.3170   11.8316 C.ar    1  UNL1        0.0148
     22 C          62.2157   80.0829   13.1958 C.ar    1  UNL1        0.0034
     23 C          62.1863   81.1974   14.1993 C.ar    1  UNL1        0.0276
     24 C          62.7351   82.5460   13.8386 C.ar    1  UNL1        0.1224
     25 N          63.3132   82.7801   12.4744 N.ar    1  UNL1       -0.2414
@<TRIPOS>BOND
     1    19    20    1
     2    20    21   ar
     3    21    22   ar
     4    22    23   ar
     5    23    24   ar
     6    24    17    1
     7    17    18    3
     8    18     1    1
     9     1     2    2
    10     2     3    1
    11     3     4    1
    12     4     5    1
    13     5     6   am
    14     6     7    2
    15     6    10    1
    16    10    11   ar
    17    11    12   ar
    18    12    13   ar
    19    13    14   ar
    20    14    15    1
    21    14    16   ar
    22     5     8    1
    23     8     9    1
    24    24    25   ar
    25    25    20   ar
    26     9     2    1
    27    16    10   ar
@<TRIPOS>MOLECULE
*****
 25 27 0 0 0
SMALL
GASTEIGER

@<TRIPOS>ATOM
      1 C          62.9411   87.7733   16.6351 C.2     1  UNL1        0.0412
      2 C          63.6613   88.9688   16.0856 C.2     1  UNL1       -0.0326
      3 C          64.4485   88.8513   14.8142 C.3     1  UNL1        0.0442
      4 C          65.1686   90.0469   14.2647 C.3     1  UNL1        0.0981
      5 N          65.1016   91.3600   14.9867 N.am    1  UNL1       -0.2754
      6 C          65.8218   92.5556   14.4372 C.2     1  UNL1        0.2491
      7 O          65.7547   93.8687   15.1591 O.2     1  UNL1       -0.2699
      8 C          64.3144   91.4776   16.2581 C.3     1  UNL1        0.0981
      9 C          63.5942   90.2819   16.8075 C.3     1  UNL1        0.0442
     10 C          66.6090   92.4381   13.1658 C.ar    1  UNL1        0.0544
     11 C          67.8766   91.6366   13.1399 C.ar    1  UNL1        0.0046
     12 C          68.6638   91.5190   11.8684 C.ar    1  UNL1        0.0010
     13 C          68.1833   92.2030   10.6229 C.ar    1  UNL1        0.0114
     14 C          66.9157   93.0045   10.6488 C.ar    1  UNL1        0.0578
     15 CL         66.4352   93.6885    9.4033 Cl      1  UNL1       -0.0822
     16 C          66.1285   93.1220   11.9202 C.ar    1  UNL1        0.0159
     17 C          63.0752   85.1470   15.1912 C.1     1  UNL1       -0.0405
     18 C          63.0081   86.4601   15.9131 C.1     1  UNL1       -0.0583
     19 C          61.0078   80.5104   14.0832 C.3     1  UNL1        0.0521
     20 C          62.1085   81.5155   13.9153 C.ar    1  UNL1        0.0600
     21 C          63.2761   81.2075   13.0255 C.ar    1  UNL1        0.0148
     22 C          64.3768   82.2127   12.8576 C.ar    1  UNL1        0.0034
     23 C          64.3098   83.5258   13.5795 C.ar    1  UNL1        0.0276
     24 C          63.1422   83.8338   14.4693 C.ar    1  UNL1        0.1224
     25 N          62.0415   82.8286   14.6372 N.ar    1  UNL1       -0.2414
@<TRIPOS>BOND
     1    19    20    1
     2    20    21   ar
     3    21    22   ar
     4    22    23   ar
     5    23    24   ar
     6    24    17    1
     7    17    18    3
     8    18     1    1
     9     1     2    2
    10     2     3    1
    11     3     4    1
    12     4     5    1
    13     5     6   am
    14     6     7    2
    15     6    10    1
    16    10    11   ar
    17    11    12   ar
    18    12    13   ar
    19    13    14   ar
    20    14    15    1
    21    14    16   ar
    22     5     8    1
    23     8     9    1
    24    24    25   ar
    25    25    20   ar
    26     9     2    1
    27    16    10   ar
@<TRIPOS>MOLECULE
*****
 25 27 0 0 0
SMALL
GASTEIGER

@<TRIPOS>ATOM
      1 C          62.1495   88.2240   10.5943 C.2     1  UNL1        0.0412
      2 C          62.9627   89.3913   11.0697 C.2     1  UNL1       -0.0326
      3 C          63.8433   89.2503   12.2758 C.3     1  UNL1        0.0442
      4 C          64.6565   90.4177   12.7512 C.3     1  UNL1        0.0981
      5 N          64.5891   91.7260   12.0205 N.am    1  UNL1       -0.2754
      6 C          65.4023   92.8933   12.4960 C.2     1  UNL1        0.2491
      7 O          65.3348   94.2015   11.7653 O.2     1  UNL1       -0.2699
      8 C          63.7085   91.8669   10.8145 C.3     1  UNL1        0.0981
      9 C          62.8953   90.6995   10.3390 C.3     1  UNL1        0.0442
     10 C          66.2829   92.7524   13.7020 C.ar    1  UNL1        0.0544
     11 C          65.6775   92.7296   15.0742 C.ar    1  UNL1        0.0046
     12 C          66.5581   92.5886   16.2803 C.ar    1  UNL1        0.0010
     13 C          68.0441   92.4705   16.1142 C.ar    1  UNL1        0.0114
     14 C          68.6496   92.4933   14.7421 C.ar    1  UNL1        0.0578
     15 CL         70.1357   92.3752   14.5759 Cl      1  UNL1       -0.0822
     16 C          67.7690   92.6343   13.5360 C.ar    1  UNL1        0.0159
     17 C          62.2844   85.6074   12.0556 C.1     1  UNL1       -0.0405
     18 C          62.2169   86.9156   11.3250 C.1     1  UNL1       -0.0583
     19 C          62.6995   80.4283   11.9821 C.3     1  UNL1        0.0521
     20 C          62.5594   81.7095   12.7495 C.ar    1  UNL1        0.0600
     21 C          62.4866   81.6825   14.2475 C.ar    1  UNL1        0.0148
     22 C          62.3464   82.9637   15.0148 C.ar    1  UNL1        0.0034
     23 C          62.2790   84.2720   14.2842 C.ar    1  UNL1        0.0276
     24 C          62.3518   84.2990   12.7863 C.ar    1  UNL1        0.1224
     25 N          62.4919   83.0178   12.0189 N.ar    1  UNL1       -0.2414
@<TRIPOS>BOND
     1    19    20    1
     2    20    21   ar
     3    21    22   ar
     4    22    23   ar
     5    23    24   ar
     6    24    17    1
     7    17    18    3
     8    18     1    1
     9     1     2    2
    10     2     3    1
    11     3     4    1
    12     4     5    1
    13     5     6   am
    14     6     7    2
    15     6    10    1
    16    10    11   ar
    17    11    12   ar
    18    12    13   ar
    19    13    14   ar
    20    14    15    1
    21    14    16   ar
    22     5     8    1
    23     8     9    1
    24    24    25   ar
    25    25    20   ar
    26     9     2    1
    27    16    10   ar
@<TRIPOS>MOLECULE
*****
 25 27 0 0 0
SMALL
GASTEIGER

@<TRIPOS>ATOM
      1 C          72.9519   78.4676   13.6453 C.2     1  UNL1        0.0412
      2 C          72.6172   77.0071   13.7157 C.2     1  UNL1       -0.0326
      3 C          72.0531   76.3082   12.5143 C.3     1  UNL1        0.0442
      4 C          71.7184   74.8477   12.5847 C.3     1  UNL1        0.0981
      5 N          71.9477   74.0861   13.8565 N.am    1  UNL1       -0.2754
      6 C          71.6130   72.6257   13.9269 C.2     1  UNL1        0.2491
      7 O          71.8423   71.8642   15.1987 O.2     1  UNL1       -0.2699
      8 C          72.5118   74.7851   15.0579 C.3     1  UNL1        0.0981
      9 C          72.8465   76.2456   14.9875 C.3     1  UNL1        0.0442
     10 C          71.0489   71.9267   12.7255 C.ar    1  UNL1        0.0544
     11 C          71.8783   71.7817   11.4841 C.ar    1  UNL1        0.0046
     12 C          71.3142   71.0828   10.2827 C.ar    1  UNL1        0.0010
     13 C          69.9208   70.5289   10.3228 C.ar    1  UNL1        0.0114
     14 C          69.0915   70.6739   11.5642 C.ar    1  UNL1        0.0578
     15 CL         67.6981   70.1199   11.6043 Cl      1  UNL1       -0.0822
     16 C          69.6556   71.3728   12.7656 C.ar    1  UNL1        0.0159
     17 C          72.4933   79.9908   11.1017 C.1     1  UNL1       -0.0405
     18 C          72.7225   79.2292   12.3735 C.1     1  UNL1       -0.0583
     19 C          71.4561   80.0393    6.0104 C.3     1  UNL1        0.0521
     20 C          71.7454   80.7766    7.2843 C.ar    1  UNL1        0.0600
     21 C          71.8053   82.2754    7.2864 C.ar    1  UNL1        0.0148
     22 C          72.0945   83.0126    8.5602 C.ar    1  UNL1        0.0034
     23 C          72.3238   82.2511    9.8320 C.ar    1  UNL1        0.0276
     24 C          72.2639   80.7523    9.8299 C.ar    1  UNL1        0.1224
     25 N          71.9747   80.0151    8.5560 N.ar    1  UNL1       -0.2414
@<TRIPOS>BOND
     1    19    20    1
     2    20    21   ar
     3    21    22   ar
     4    22    23   ar
     5    23    24   ar
     6    24    17    1
     7    17    18    3
     8    18     1    1
     9     1     2    2
    10     2     3    1
    11     3     4    1
    12     4     5    1
    13     5     6   am
    14     6     7    2
    15     6    10    1
    16    10    11   ar
    17    11    12   ar
    18    12    13   ar
    19    13    14   ar
    20    14    15    1
    21    14    16   ar
    22     5     8    1
    23     8     9    1
    24    24    25   ar
    25    25    20   ar
    26     9     2    1
    27    16    10   ar
@<TRIPOS>MOLECULE
*****
 25 27 0 0 0
SMALL
GASTEIGER

@<TRIPOS>ATOM
      1 C          60.5890   86.4873    8.6061 C.2     1  UNL1        0.0412
      2 C          61.3668   86.7727    9.8565 C.2     1  UNL1       -0.0326
      3 C          61.6572   88.1902   10.2520 C.3     1  UNL1        0.0442
      4 C          62.4350   88.4757   11.5024 C.3     1  UNL1        0.0981
      5 N          62.9223   87.3436   12.3574 N.am    1  UNL1       -0.2754
      6 C          63.7000   87.6290   13.6079 C.2     1  UNL1        0.2491
      7 O          64.1872   86.4970   14.4628 O.2     1  UNL1       -0.2699
      8 C          62.6318   85.9261   11.9620 C.3     1  UNL1        0.0981
      9 C          61.8540   85.6407   10.7115 C.3     1  UNL1        0.0442
     10 C          63.9904   89.0465   14.0033 C.ar    1  UNL1        0.0544
     11 C          63.7291   89.5017   15.4084 C.ar    1  UNL1        0.0046
     12 C          64.0195   90.9192   15.8039 C.ar    1  UNL1        0.0010
     13 C          64.5714   91.8814   14.7943 C.ar    1  UNL1        0.0114
     14 C          64.8328   91.4262   13.3891 C.ar    1  UNL1        0.0578
     15 CL         65.3846   92.3885   12.3794 Cl      1  UNL1       -0.0822
     16 C          64.5423   90.0088   12.9937 C.ar    1  UNL1        0.0159
     17 C          59.6144   88.7514    6.8960 C.1     1  UNL1       -0.0405
     18 C          60.1017   87.6194    7.7510 C.1     1  UNL1       -0.0583
     19 C          60.5931   92.6342    3.5845 C.3     1  UNL1        0.0521
     20 C          59.6165   91.8248    4.3852 C.ar    1  UNL1        0.0600
     21 C          58.1527   92.1475    4.3309 C.ar    1  UNL1        0.0148
     22 C          57.1761   91.3381    5.1316 C.ar    1  UNL1        0.0034
     23 C          57.6633   90.2061    5.9866 C.ar    1  UNL1        0.0276
     24 C          59.1271   89.8834    6.0409 C.ar    1  UNL1        0.1224
     25 N          60.1038   90.6928    5.2402 N.ar    1  UNL1       -0.2414
@<TRIPOS>BOND
     1    19    20    1
     2    20    21   ar
     3    21    22   ar
     4    22    23   ar
     5    23    24   ar
     6    24    17    1
     7    17    18    3
     8    18     1    1
     9     1     2    2
    10     2     3    1
    11     3     4    1
    12     4     5    1
    13     5     6   am
    14     6     7    2
    15     6    10    1
    16    10    11   ar
    17    11    12   ar
    18    12    13   ar
    19    13    14   ar
    20    14    15    1
    21    14    16   ar
    22     5     8    1
    23     8     9    1
    24    24    25   ar
    25    25    20   ar
    26     9     2    1
    27    16    10   ar
@<TRIPOS>MOLECULE
*****
 25 27 0 0 0
SMALL
GASTEIGER

@<TRIPOS>ATOM
      1 C          60.3854   87.4304    9.0222 C.2     1  UNL1        0.0412
      2 C          61.3146   87.8111   10.1365 C.2     1  UNL1       -0.0326
      3 C          61.9154   89.1850   10.1758 C.3     1  UNL1        0.0442
      4 C          62.8445   89.5657   11.2901 C.3     1  UNL1        0.0981
      5 N          63.1729   88.5725   12.3652 N.am    1  UNL1       -0.2754
      6 C          64.1020   88.9532   13.4795 C.2     1  UNL1        0.2491
      7 O          64.4304   87.9601   14.5546 O.2     1  UNL1       -0.2699
      8 C          62.5721   87.1987   12.3260 C.3     1  UNL1        0.0981
      9 C          61.6429   86.8180   11.2116 C.3     1  UNL1        0.0442
     10 C          64.7028   90.3271   13.5188 C.ar    1  UNL1        0.0544
     11 C          64.6394   91.2083   12.3067 C.ar    1  UNL1        0.0046
     12 C          65.2402   92.5822   12.3459 C.ar    1  UNL1        0.0010
     13 C          65.9045   93.0748   13.5973 C.ar    1  UNL1        0.0114
     14 C          65.9679   92.1935   14.8094 C.ar    1  UNL1        0.0578
     15 CL         66.6323   92.6861   16.0609 Cl      1  UNL1       -0.0822
     16 C          65.3671   90.8197   14.7702 C.ar    1  UNL1        0.0159
     17 C          59.7287   89.4168    6.8720 C.1     1  UNL1       -0.0405
     18 C          60.0571   88.4236    7.9471 C.1     1  UNL1       -0.0583
     19 C          61.2584   92.5375    3.0093 C.3     1  UNL1        0.0521
     20 C          60.1652   91.9703    3.8655 C.ar    1  UNL1        0.0600
     21 C          58.7438   92.3962    3.6467 C.ar    1  UNL1        0.0148
     22 C          57.6506   91.8290    4.5030 C.ar    1  UNL1        0.0034
     23 C          57.9789   90.8359    5.5781 C.ar    1  UNL1        0.0276
     24 C          59.4004   90.4100    5.7969 C.ar    1  UNL1        0.1224
     25 N          60.4936   90.9772    4.9406 N.ar    1  UNL1       -0.2414
@<TRIPOS>BOND
     1    19    20    1
     2    20    21   ar
     3    21    22   ar
     4    22    23   ar
     5    23    24   ar
     6    24    17    1
     7    17    18    3
     8    18     1    1
     9     1     2    2
    10     2     3    1
    11     3     4    1
    12     4     5    1
    13     5     6   am
    14     6     7    2
    15     6    10    1
    16    10    11   ar
    17    11    12   ar
    18    12    13   ar
    19    13    14   ar
    20    14    15    1
    21    14    16   ar
    22     5     8    1
    23     8     9    1
    24    24    25   ar
    25    25    20   ar
    26     9     2    1
    27    16    10   ar
