@<TRIPOS>MOLECULE
*****
 28 29 0 0 0
SMALL
GASTEIGER

@<TRIPOS>ATOM
      1 C          65.4356   92.3394   11.6746 C.ar    1  UNL1        0.1552
      2 N          65.5647   92.3497   13.1690 N.ar    1  UNL1       -0.1930
      3 C          64.5871   91.5854   14.0115 C.ar    1  UNL1        0.2594
      4 O          64.7162   91.5958   15.5060 O.3     1  UNL1       -0.4899
      5 C          63.4803   90.8107   13.3598 C.ar    1  UNL1        0.2098
      6 O          62.5026   90.0464   14.2024 O.3     1  UNL1       -0.5007
      7 C          63.3512   90.8004   11.8654 C.ar    1  UNL1        0.1740
      8 N          64.3288   91.5647   11.0228 N.ar    1  UNL1       -0.2215
      9 H          65.4076   92.0797   15.9131 H       1  UNL1        0.2938
     10 H          62.5833   90.0529   15.1359 H       1  UNL1        0.2924
     11 C          62.2443   90.0257   11.2136 C.2     1  UNL1        0.2671
     12 O          61.4485   90.6449   10.1031 O.2     1  UNL1       -0.2684
     13 N          61.9334   88.6318   11.6722 N.am    1  UNL1       -0.2956
     14 H          62.4558   88.2254   12.4010 H       1  UNL1        0.1501
     15 C          60.8266   87.8571   11.0203 C.3     1  UNL1        0.1166
     16 C          61.1123   87.0104    9.8156 C.ar    1  UNL1       -0.0024
     17 C          60.0443   86.7855    8.7866 C.ar    1  UNL1       -0.0003
     18 C          60.3300   85.9388    7.5819 C.ar    1  UNL1        0.0294
     19 C          61.6837   85.3169    7.4061 C.ar    1  UNL1        0.1401
     20 F          61.9694   84.4702    6.2013 F       1  UNL1       -0.2042
     21 C          62.7517   85.5418    8.4351 C.ar    1  UNL1        0.0294
     22 C          62.4659   86.3886    9.6399 C.ar    1  UNL1       -0.0003
     23 C          66.4133   93.1037   10.8320 C.3     1  UNL1        0.0981
     24 C          67.4497   92.0472   11.0762 C.3     1  UNL1        0.0238
     25 C          65.3769   94.1602   10.5878 C.3     1  UNL1        0.0238
     26 C          68.5078   93.1463    9.2954 C.3     1  UNL1        0.0899
     27 N          67.3909   93.8681    9.9894 N.3     1  UNL1       -0.2667
     28 C          67.2517   95.3541    9.8408 C.3     1  UNL1        0.0899
@<TRIPOS>BOND
     1    26    27    1
     2    27    28    1
     3    27    23    1
     4    23    24    1
     5    23    25    1
     6    23     1    1
     7     1     2   ar
     8     2     3   ar
     9     3     4    1
    10     3     5   ar
    11     5     6    1
    12     5     7   ar
    13     7    11    1
    14    11    12    2
    15    11    13   am
    16    13    15    1
    17    15    16    1
    18    16    17   ar
    19    17    18   ar
    20    18    19   ar
    21    19    20    1
    22    19    21   ar
    23    21    22   ar
    24     7     8   ar
    25     8     1   ar
    26    22    16   ar
    27     4     9    1
    28     6    10    1
    29    13    14    1
@<TRIPOS>MOLECULE
*****
 28 29 0 0 0
SMALL
GASTEIGER

@<TRIPOS>ATOM
      1 C          66.2209   93.0185   12.1661 C.ar    1  UNL1        0.1552
      2 N          66.7574   93.3255   13.5328 N.ar    1  UNL1       -0.1930
      3 C          66.1491   92.6763   14.7405 C.ar    1  UNL1        0.2594
      4 O          66.6857   92.9833   16.1073 O.3     1  UNL1       -0.4899
      5 C          65.0044   91.7202   14.5816 C.ar    1  UNL1        0.2098
      6 O          64.3961   91.0711   15.7893 O.3     1  UNL1       -0.5007
      7 C          64.4679   91.4133   13.2149 C.ar    1  UNL1        0.1740
      8 N          65.0761   92.0624   12.0072 N.ar    1  UNL1       -0.2215
      9 H          67.4008   93.5806   16.2066 H       1  UNL1        0.2938
     10 H          64.7312   91.2628   16.6430 H       1  UNL1        0.2924
     11 C          63.3230   90.4571   13.0559 C.2     1  UNL1        0.2671
     12 O          63.2553   89.2208   13.9025 O.2     1  UNL1       -0.2684
     13 N          62.2460   90.7374   12.0502 N.am    1  UNL1       -0.2956
     14 H          62.2904   91.5488   11.4945 H       1  UNL1        0.1501
     15 C          61.1011   89.7812   11.8912 C.3     1  UNL1        0.1166
     16 C          61.1397   88.7375   10.8145 C.ar    1  UNL1       -0.0024
     17 C          62.0806   87.5750   10.9302 C.ar    1  UNL1       -0.0003
     18 C          62.1191   86.5314    9.8535 C.ar    1  UNL1        0.0294
     19 C          61.2167   86.6501    8.6612 C.ar    1  UNL1        0.1401
     20 F          61.2552   85.6064    7.5845 F       1  UNL1       -0.2042
     21 C          60.2758   87.8126    8.5455 C.ar    1  UNL1        0.0294
     22 C          60.2373   88.8563    9.6223 C.ar    1  UNL1       -0.0003
     23 C          66.8292   93.6677   10.9584 C.3     1  UNL1        0.0981
     24 C          66.2211   94.9796   11.3573 C.3     1  UNL1        0.0238
     25 C          67.4372   92.3558   10.5595 C.3     1  UNL1        0.0238
     26 C          68.2225   93.4943    8.7724 C.3     1  UNL1        0.0899
     27 N          67.4374   94.3169    9.7507 N.3     1  UNL1       -0.2667
     28 C          67.2606   95.7886    9.5212 C.3     1  UNL1        0.0899
@<TRIPOS>BOND
     1    26    27    1
     2    27    28    1
     3    27    23    1
     4    23    24    1
     5    23    25    1
     6    23     1    1
     7     1     2   ar
     8     2     3   ar
     9     3     4    1
    10     3     5   ar
    11     5     6    1
    12     5     7   ar
    13     7    11    1
    14    11    12    2
    15    11    13   am
    16    13    15    1
    17    15    16    1
    18    16    17   ar
    19    17    18   ar
    20    18    19   ar
    21    19    20    1
    22    19    21   ar
    23    21    22   ar
    24     7     8   ar
    25     8     1   ar
    26    22    16   ar
    27     4     9    1
    28     6    10    1
    29    13    14    1
@<TRIPOS>MOLECULE
*****
 28 29 0 0 0
SMALL
GASTEIGER

@<TRIPOS>ATOM
      1 C          65.7838   92.9305   12.0488 C.ar    1  UNL1        0.1552
      2 N          66.0260   93.1700   13.5096 N.ar    1  UNL1       -0.1930
      3 C          65.2504   92.3974   14.5350 C.ar    1  UNL1        0.2594
      4 O          65.4927   92.6370   15.9959 O.3     1  UNL1       -0.4899
      5 C          64.2326   91.3853   14.0997 C.ar    1  UNL1        0.2098
      6 O          63.4569   90.6127   15.1251 O.3     1  UNL1       -0.5007
      7 C          63.9903   91.1458   12.6389 C.ar    1  UNL1        0.1740
      8 N          64.7659   91.9184   11.6135 N.ar    1  UNL1       -0.2215
      9 H          66.1286   93.2692   16.2678 H       1  UNL1        0.2938
     10 H          63.6083   90.7624   16.0376 H       1  UNL1        0.2924
     11 C          62.9724   90.1337   12.2035 C.2     1  UNL1        0.2671
     12 O          61.9775   89.5983   13.1902 O.2     1  UNL1       -0.2684
     13 N          62.9494   89.6570   10.7815 N.am    1  UNL1       -0.2956
     14 H          63.6024   90.0085   10.1339 H       1  UNL1        0.1501
     15 C          61.9315   88.6449   10.3461 C.3     1  UNL1        0.1166
     16 C          62.3077   87.1960   10.2506 C.ar    1  UNL1       -0.0024
     17 C          62.6230   86.5894    8.9155 C.ar    1  UNL1       -0.0003
     18 C          62.9992   85.1405    8.8200 C.ar    1  UNL1        0.0294
     19 C          63.0603   84.2982   10.0597 C.ar    1  UNL1        0.1401
     20 F          63.4365   82.8493    9.9643 F       1  UNL1       -0.2042
     21 C          62.7450   84.9048   11.3949 C.ar    1  UNL1        0.0294
     22 C          62.3688   86.3538   11.4903 C.ar    1  UNL1       -0.0003
     23 C          66.5594   93.7031   11.0234 C.3     1  UNL1        0.0981
     24 C          67.0821   92.4189   10.4512 C.3     1  UNL1        0.0238
     25 C          66.0367   94.9874   11.5956 C.3     1  UNL1        0.0238
     26 C          67.1795   95.9647    9.9051 C.3     1  UNL1        0.0899
     27 N          67.3350   94.4757    9.9979 N.3     1  UNL1       -0.2667
     28 C          68.2661   93.7593    9.0654 C.3     1  UNL1        0.0899
@<TRIPOS>BOND
     1    26    27    1
     2    27    28    1
     3    27    23    1
     4    23    24    1
     5    23    25    1
     6    23     1    1
     7     1     2   ar
     8     2     3   ar
     9     3     4    1
    10     3     5   ar
    11     5     6    1
    12     5     7   ar
    13     7    11    1
    14    11    12    2
    15    11    13   am
    16    13    15    1
    17    15    16    1
    18    16    17   ar
    19    17    18   ar
    20    18    19   ar
    21    19    20    1
    22    19    21   ar
    23    21    22   ar
    24     7     8   ar
    25     8     1   ar
    26    22    16   ar
    27     4     9    1
    28     6    10    1
    29    13    14    1
@<TRIPOS>MOLECULE
*****
 28 29 0 0 0
SMALL
GASTEIGER

@<TRIPOS>ATOM
      1 C          64.4144   91.2634   12.3222 C.ar    1  UNL1        0.1552
      2 N          63.4811   91.2386   11.1483 N.ar    1  UNL1       -0.1930
      3 C          62.6224   90.0343   10.8982 C.ar    1  UNL1        0.2594
      4 O          61.6890   90.0095    9.7242 O.3     1  UNL1       -0.4899
      5 C          62.6971   88.8550   11.8220 C.ar    1  UNL1        0.2098
      6 O          61.8384   87.6508   11.5719 O.3     1  UNL1       -0.5007
      7 C          63.6304   88.8799   12.9960 C.ar    1  UNL1        0.1740
      8 N          64.4891   90.0841   13.2461 N.ar    1  UNL1       -0.2215
      9 H          61.6424   90.7462    9.1470 H       1  UNL1        0.2938
     10 H          61.2554   87.6352   10.8386 H       1  UNL1        0.2924
     11 C          63.7052   87.7005   13.9199 C.2     1  UNL1        0.2671
     12 O          63.9065   87.9120   15.3912 O.2     1  UNL1       -0.2684
     13 N          63.5785   86.3097   13.3725 N.am    1  UNL1       -0.2956
     14 H          63.4464   86.1710   12.4069 H       1  UNL1        0.1501
     15 C          63.6532   85.1304   14.2965 C.3     1  UNL1        0.1166
     16 C          63.3531   83.7539   13.7814 C.ar    1  UNL1       -0.0024
     17 C          63.9777   83.2788   12.5031 C.ar    1  UNL1       -0.0003
     18 C          63.6776   81.9023   11.9880 C.ar    1  UNL1        0.0294
     19 C          62.7529   81.0010   12.7513 C.ar    1  UNL1        0.1401
     20 F          62.4528   79.6246   12.2362 F       1  UNL1       -0.2042
     21 C          62.1283   81.4761   14.0296 C.ar    1  UNL1        0.0294
     22 C          62.4285   82.8527   14.5447 C.ar    1  UNL1       -0.0003
     23 C          65.2731   92.4677   12.5723 C.3     1  UNL1        0.0981
     24 C          65.0748   92.9043   11.1510 C.3     1  UNL1        0.0238
     25 C          65.4714   92.0310   13.9936 C.3     1  UNL1        0.0238
     26 C          66.3467   94.6792   11.7321 C.3     1  UNL1        0.0899
     27 N          66.1318   93.6719   12.8224 N.3     1  UNL1       -0.2667
     28 C          66.7755   93.8687   14.1629 C.3     1  UNL1        0.0899
@<TRIPOS>BOND
     1    26    27    1
     2    27    28    1
     3    27    23    1
     4    23    24    1
     5    23    25    1
     6    23     1    1
     7     1     2   ar
     8     2     3   ar
     9     3     4    1
    10     3     5   ar
    11     5     6    1
    12     5     7   ar
    13     7    11    1
    14    11    12    2
    15    11    13   am
    16    13    15    1
    17    15    16    1
    18    16    17   ar
    19    17    18   ar
    20    18    19   ar
    21    19    20    1
    22    19    21   ar
    23    21    22   ar
    24     7     8   ar
    25     8     1   ar
    26    22    16   ar
    27     4     9    1
    28     6    10    1
    29    13    14    1
@<TRIPOS>MOLECULE
*****
 28 29 0 0 0
SMALL
GASTEIGER

@<TRIPOS>ATOM
      1 C          64.9088   91.5286   13.1595 C.ar    1  UNL1        0.1552
      2 N          64.6233   91.9926   14.5570 N.ar    1  UNL1       -0.1930
      3 C          63.9680   91.0643   15.5362 C.ar    1  UNL1        0.2594
      4 O          63.6824   91.5283   16.9339 O.3     1  UNL1       -0.4899
      5 C          63.5983   89.6720   15.1179 C.ar    1  UNL1        0.2098
      6 O          62.9431   88.7438   16.0972 O.3     1  UNL1       -0.5007
      7 C          63.8839   89.2081   13.7204 C.ar    1  UNL1        0.1740
      8 N          64.5392   90.1364   12.7412 N.ar    1  UNL1       -0.2215
      9 H          63.9134   92.3979   17.1952 H       1  UNL1        0.2938
     10 H          62.7647   89.0336   16.9702 H       1  UNL1        0.2924
     11 C          63.5142   87.8158   13.3020 C.2     1  UNL1        0.2671
     12 O          63.9069   86.6469   14.1561 O.2     1  UNL1       -0.2684
     13 N          62.7519   87.5926   12.0296 N.am    1  UNL1       -0.2956
     14 H          62.4942   88.3598   11.4691 H       1  UNL1        0.1501
     15 C          62.3822   86.2003   11.6112 C.3     1  UNL1        0.1166
     16 C          62.1290   85.8941   10.1649 C.ar    1  UNL1       -0.0024
     17 C          63.1271   85.0939    9.3817 C.ar    1  UNL1       -0.0003
     18 C          62.8739   84.7878    7.9353 C.ar    1  UNL1        0.0294
     19 C          61.6224   85.2818    7.2720 C.ar    1  UNL1        0.1401
     20 F          61.3691   84.9756    5.8256 F       1  UNL1       -0.2042
     21 C          60.6242   86.0820    8.0552 C.ar    1  UNL1        0.0294
     22 C          60.8776   86.3881    9.5017 C.ar    1  UNL1       -0.0003
     23 C          65.5641   92.4569   12.1802 C.3     1  UNL1        0.0981
     24 C          66.5123   92.9147   13.2486 C.3     1  UNL1        0.0238
     25 C          64.6159   91.9992   11.1118 C.3     1  UNL1        0.0238
     26 C          66.0741   94.8694   11.3620 C.3     1  UNL1        0.0899
     27 N          66.2194   93.3852   11.2010 N.3     1  UNL1       -0.2667
     28 C          67.0198   92.8293   10.0608 C.3     1  UNL1        0.0899
@<TRIPOS>BOND
     1    26    27    1
     2    27    28    1
     3    27    23    1
     4    23    24    1
     5    23    25    1
     6    23     1    1
     7     1     2   ar
     8     2     3   ar
     9     3     4    1
    10     3     5   ar
    11     5     6    1
    12     5     7   ar
    13     7    11    1
    14    11    12    2
    15    11    13   am
    16    13    15    1
    17    15    16    1
    18    16    17   ar
    19    17    18   ar
    20    18    19   ar
    21    19    20    1
    22    19    21   ar
    23    21    22   ar
    24     7     8   ar
    25     8     1   ar
    26    22    16   ar
    27     4     9    1
    28     6    10    1
    29    13    14    1
@<TRIPOS>MOLECULE
*****
 28 29 0 0 0
SMALL
GASTEIGER

@<TRIPOS>ATOM
      1 C          63.7163   89.8835   13.5639 C.ar    1  UNL1        0.1552
      2 N          63.3404   90.5987   14.8277 N.ar    1  UNL1       -0.1930
      3 C          63.2238   89.8366   16.1144 C.ar    1  UNL1        0.2594
      4 O          62.8478   90.5519   17.3782 O.3     1  UNL1       -0.4899
      5 C          63.4831   88.3594   16.1374 C.ar    1  UNL1        0.2098
      6 O          63.3665   87.5974   17.4241 O.3     1  UNL1       -0.5007
      7 C          63.8591   87.6443   14.8736 C.ar    1  UNL1        0.1740
      8 N          63.9757   88.4063   13.5869 N.ar    1  UNL1       -0.2215
      9 H          62.6858   91.4746   17.3639 H       1  UNL1        0.2938
     10 H          63.1317   88.0441   18.2136 H       1  UNL1        0.2924
     11 C          64.1185   86.1670   14.8965 C.2     1  UNL1        0.2671
     12 O          65.5170   85.6485   14.7377 O.2     1  UNL1       -0.2684
     13 N          62.9793   85.2082   15.0783 N.am    1  UNL1       -0.2956
     14 H          62.0614   85.5485   15.1826 H       1  UNL1        0.1501
     15 C          63.2387   83.7310   15.1012 C.3     1  UNL1        0.1166
     16 C          63.1841   82.9401   13.8279 C.ar    1  UNL1       -0.0024
     17 C          62.7423   81.5068   13.8535 C.ar    1  UNL1       -0.0003
     18 C          62.6878   80.7159   12.5802 C.ar    1  UNL1        0.0294
     19 C          63.0750   81.3583   11.2811 C.ar    1  UNL1        0.1401
     20 F          63.0204   80.5674   10.0078 F       1  UNL1       -0.2042
     21 C          63.5168   82.7915   11.2555 C.ar    1  UNL1        0.0294
     22 C          63.5713   83.5824   12.5289 C.ar    1  UNL1       -0.0003
     23 C          63.8330   90.6455   12.2772 C.3     1  UNL1        0.0981
     24 C          64.7450   91.6321   12.9441 C.3     1  UNL1        0.0238
     25 C          62.9209   89.6590   11.6102 C.3     1  UNL1        0.0238
     26 C          62.9446   91.1927    9.8978 C.3     1  UNL1        0.0899
     27 N          63.9496   91.4076   10.9904 N.3     1  UNL1       -0.2667
     28 C          65.0711   92.3845   10.7963 C.3     1  UNL1        0.0899
@<TRIPOS>BOND
     1    26    27    1
     2    27    28    1
     3    27    23    1
     4    23    24    1
     5    23    25    1
     6    23     1    1
     7     1     2   ar
     8     2     3   ar
     9     3     4    1
    10     3     5   ar
    11     5     6    1
    12     5     7   ar
    13     7    11    1
    14    11    12    2
    15    11    13   am
    16    13    15    1
    17    15    16    1
    18    16    17   ar
    19    17    18   ar
    20    18    19   ar
    21    19    20    1
    22    19    21   ar
    23    21    22   ar
    24     7     8   ar
    25     8     1   ar
    26    22    16   ar
    27     4     9    1
    28     6    10    1
    29    13    14    1
@<TRIPOS>MOLECULE
*****
 28 29 0 0 0
SMALL
GASTEIGER

@<TRIPOS>ATOM
      1 C          62.7388   85.6721   11.9726 C.ar    1  UNL1        0.1552
      2 N          61.9384   85.3731   10.7398 N.ar    1  UNL1       -0.1930
      3 C          61.4101   86.4964    9.8978 C.ar    1  UNL1        0.2594
      4 O          60.6097   86.1973    8.6649 O.3     1  UNL1       -0.4899
      5 C          61.6822   87.9188   10.2886 C.ar    1  UNL1        0.2098
      6 O          61.1539   89.0421    9.4465 O.3     1  UNL1       -0.5007
      7 C          62.4826   88.2178   11.5214 C.ar    1  UNL1        0.1740
      8 N          63.0109   87.0945   12.3634 N.ar    1  UNL1       -0.2215
      9 H          60.4397   85.3088    8.4208 H       1  UNL1        0.2938
     10 H          60.6539   88.8553    8.6764 H       1  UNL1        0.2924
     11 C          62.7547   89.6403   11.9123 C.2     1  UNL1        0.2671
     12 O          61.8692   90.7398   11.4054 O.2     1  UNL1       -0.2684
     13 N          63.9122   89.9631   12.8099 N.am    1  UNL1       -0.2956
     14 H          64.4933   89.2414   13.1426 H       1  UNL1        0.1501
     15 C          64.1843   91.3856   13.2008 C.3     1  UNL1        0.1166
     16 C          65.4286   91.7285   13.9650 C.ar    1  UNL1       -0.0024
     17 C          66.7578   91.7347   13.2699 C.ar    1  UNL1       -0.0003
     18 C          68.0022   92.0776   14.0340 C.ar    1  UNL1        0.0294
     19 C          67.9174   92.4143   15.4934 C.ar    1  UNL1        0.1401
     20 F          69.1617   92.7572   16.2575 F       1  UNL1       -0.2042
     21 C          66.5881   92.4081   16.1884 C.ar    1  UNL1        0.0294
     22 C          65.3437   92.0652   15.4242 C.ar    1  UNL1       -0.0003
     23 C          63.2671   84.5488   12.8147 C.3     1  UNL1        0.0981
     24 C          62.7570   83.5570   11.8116 C.3     1  UNL1        0.0238
     25 C          63.7772   85.5406   13.8177 C.3     1  UNL1        0.0238
     26 C          64.1941   83.6787   15.0804 C.3     1  UNL1        0.0899
     27 N          63.7954   83.4255   13.6567 N.3     1  UNL1       -0.2667
     28 C          63.9250   82.0490   13.0750 C.3     1  UNL1        0.0899
@<TRIPOS>BOND
     1    26    27    1
     2    27    28    1
     3    27    23    1
     4    23    24    1
     5    23    25    1
     6    23     1    1
     7     1     2   ar
     8     2     3   ar
     9     3     4    1
    10     3     5   ar
    11     5     6    1
    12     5     7   ar
    13     7    11    1
    14    11    12    2
    15    11    13   am
    16    13    15    1
    17    15    16    1
    18    16    17   ar
    19    17    18   ar
    20    18    19   ar
    21    19    20    1
    22    19    21   ar
    23    21    22   ar
    24     7     8   ar
    25     8     1   ar
    26    22    16   ar
    27     4     9    1
    28     6    10    1
    29    13    14    1
@<TRIPOS>MOLECULE
*****
 28 29 0 0 0
SMALL
GASTEIGER

@<TRIPOS>ATOM
      1 C          62.0001   86.0594   10.1208 C.ar    1  UNL1        0.1552
      2 N          60.9009   85.9208    9.1096 N.ar    1  UNL1       -0.1930
      3 C          60.2132   87.1428    8.5770 C.ar    1  UNL1        0.2594
      4 O          59.1140   87.0041    7.5658 O.3     1  UNL1       -0.4899
      5 C          60.6247   88.5035    9.0556 C.ar    1  UNL1        0.2098
      6 O          59.9370   89.7256    8.5229 O.3     1  UNL1       -0.5007
      7 C          61.7239   88.6422   10.0667 C.ar    1  UNL1        0.1740
      8 N          62.4116   87.4202   10.5993 N.ar    1  UNL1       -0.2215
      9 H          58.8569   86.1540    7.2669 H       1  UNL1        0.2938
     10 H          59.2504   89.6389    7.8913 H       1  UNL1        0.2924
     11 C          62.1355   90.0030   10.5453 C.2     1  UNL1        0.2671
     12 O          61.1066   90.9501   11.0878 O.2     1  UNL1       -0.2684
     13 N          63.5759   90.4166   10.4814 N.am    1  UNL1       -0.2956
     14 H          64.2512   89.7950   10.1253 H       1  UNL1        0.1501
     15 C          63.9874   91.7774   10.9599 C.3     1  UNL1        0.1166
     16 C          64.7145   91.9258   12.2635 C.ar    1  UNL1       -0.0024
     17 C          65.7217   93.0233   12.4398 C.ar    1  UNL1       -0.0003
     18 C          66.4488   93.1717   13.7433 C.ar    1  UNL1        0.0294
     19 C          66.1688   92.2225   14.8706 C.ar    1  UNL1        0.1401
     20 F          66.8959   92.3709   16.1741 F       1  UNL1       -0.2042
     21 C          65.1616   91.1250   14.6943 C.ar    1  UNL1        0.0294
     22 C          64.4345   90.9766   13.3907 C.ar    1  UNL1       -0.0003
     23 C          62.6878   84.8374   10.6534 C.3     1  UNL1        0.0981
     24 C          63.1766   84.5110    9.2734 C.3     1  UNL1        0.0238
     25 C          62.1990   85.1638   12.0335 C.3     1  UNL1        0.0238
     26 C          64.3508   82.8685   10.3253 C.3     1  UNL1        0.0899
     27 N          63.3755   83.6154   11.1860 N.3     1  UNL1       -0.2667
     28 C          63.0880   83.1402   12.5794 C.3     1  UNL1        0.0899
@<TRIPOS>BOND
     1    26    27    1
     2    27    28    1
     3    27    23    1
     4    23    24    1
     5    23    25    1
     6    23     1    1
     7     1     2   ar
     8     2     3   ar
     9     3     4    1
    10     3     5   ar
    11     5     6    1
    12     5     7   ar
    13     7    11    1
    14    11    12    2
    15    11    13   am
    16    13    15    1
    17    15    16    1
    18    16    17   ar
    19    17    18   ar
    20    18    19   ar
    21    19    20    1
    22    19    21   ar
    23    21    22   ar
    24     7     8   ar
    25     8     1   ar
    26    22    16   ar
    27     4     9    1
    28     6    10    1
    29    13    14    1
@<TRIPOS>MOLECULE
*****
 28 29 0 0 0
SMALL
GASTEIGER

@<TRIPOS>ATOM
      1 C          66.4622   92.5507   13.2991 C.ar    1  UNL1        0.1552
      2 N          66.6351   93.3725   12.0562 N.ar    1  UNL1       -0.1930
      3 C          65.6924   93.1957   10.9030 C.ar    1  UNL1        0.2594
      4 O          65.8654   94.0176    9.6601 O.3     1  UNL1       -0.4899
      5 C          64.5767   92.1972   10.9925 C.ar    1  UNL1        0.2098
      6 O          63.6340   92.0204    9.8393 O.3     1  UNL1       -0.5007
      7 C          64.4038   91.3754   12.2354 C.ar    1  UNL1        0.1740
      8 N          65.3465   91.5521   13.3886 N.ar    1  UNL1       -0.2215
      9 H          66.5623   94.6414    9.6041 H       1  UNL1        0.2938
     10 H          63.7420   92.5337    9.0629 H       1  UNL1        0.2924
     11 C          63.2881   90.3767   12.3250 C.2     1  UNL1        0.2671
     12 O          63.4878   89.0946   13.0775 O.2     1  UNL1       -0.2684
     13 N          61.9727   90.6602   11.6621 N.am    1  UNL1       -0.2956
     14 H          61.8417   91.5017   11.1682 H       1  UNL1        0.1501
     15 C          60.8570   89.6616   11.7518 C.3     1  UNL1        0.1166
     16 C          60.6793   88.6365   10.6712 C.ar    1  UNL1       -0.0024
     17 C          60.0456   89.0230    9.3677 C.ar    1  UNL1       -0.0003
     18 C          59.8679   87.9980    8.2871 C.ar    1  UNL1        0.0294
     19 C          60.3239   86.5864    8.5099 C.ar    1  UNL1        0.1401
     20 F          60.1462   85.5614    7.4294 F       1  UNL1       -0.2042
     21 C          60.9576   86.2000    9.8134 C.ar    1  UNL1        0.0294
     22 C          61.1353   87.2251   10.8941 C.ar    1  UNL1       -0.0003
     23 C          67.4049   92.7275   14.4523 C.3     1  UNL1        0.0981
     24 C          66.2853   93.2816   15.2826 C.3     1  UNL1        0.0238
     25 C          68.5245   92.1734   13.6220 C.3     1  UNL1        0.0238
     26 C          68.9830   94.2396   15.8570 C.3     1  UNL1        0.0899
     27 N          68.3476   92.9043   15.6056 N.3     1  UNL1       -0.2667
     28 C          68.6550   91.7458   16.5074 C.3     1  UNL1        0.0899
@<TRIPOS>BOND
     1    26    27    1
     2    27    28    1
     3    27    23    1
     4    23    24    1
     5    23    25    1
     6    23     1    1
     7     1     2   ar
     8     2     3   ar
     9     3     4    1
    10     3     5   ar
    11     5     6    1
    12     5     7   ar
    13     7    11    1
    14    11    12    2
    15    11    13   am
    16    13    15    1
    17    15    16    1
    18    16    17   ar
    19    17    18   ar
    20    18    19   ar
    21    19    20    1
    22    19    21   ar
    23    21    22   ar
    24     7     8   ar
    25     8     1   ar
    26    22    16   ar
    27     4     9    1
    28     6    10    1
    29    13    14    1
