@<TRIPOS>MOLECULE
*****
 32 35 0 0 0
SMALL
GASTEIGER

@<TRIPOS>ATOM
      1 C          61.1526   88.3724    9.7710 C.ar    1  UNL1        0.0951
      2 C          60.2292   88.1502    8.6101 C.ar    1  UNL1        0.1454
      3 F          59.2134   89.1933    8.2494 F       1  UNL1       -0.2040
      4 C          60.3215   86.8849    7.8098 C.ar    1  UNL1        0.0312
      5 C          61.3374   85.8418    8.1704 C.ar    1  UNL1        0.0204
      6 C          62.2608   86.0641    9.3314 C.ar    1  UNL1        0.0924
      7 C          62.1685   87.3294   10.1317 C.ar    1  UNL1        0.1598
      8 F          63.0919   87.5515   11.2927 F       1  UNL1       -0.2026
      9 C          61.0602   89.6377   10.5713 C.2     1  UNL1        0.2036
     10 O          59.7294   90.1093   11.0778 O.2     1  UNL1       -0.2863
     11 C          63.6833   90.0519   14.6535 C.2     1  UNL1        0.0974
     12 C          64.8619   90.9665   14.4979 C.2     1  UNL1        0.2421
     13 N          65.1219   91.6376   13.1818 N.2     1  UNL1       -0.0304
     14 C          64.2032   91.3940   12.0214 C.2     1  UNL1        0.3721
     15 N          64.2057   91.9113   10.6134 N.2     1  UNL1       -0.0307
     16 C          63.0287   91.3164    9.8988 C.2     1  UNL1        0.2390
     17 C          62.2987   90.4314   10.8652 C.2     1  UNL1        0.0896
     18 C          63.0246   90.4793   12.1770 C.2     1  UNL1        0.0782
     19 C          62.7647   89.8083   13.4931 C.3     1  UNL1        0.0751
     20 N          63.1634   88.7097   17.2857 N.1     1  UNL1       -0.1910
     21 C          63.4233   89.3808   15.9696 C.1     1  UNL1        0.1003
     22 N          63.2767   85.0210    9.6920 N.pl3   1  UNL1       -0.2128
     23 H          64.1113   84.9473    9.1752 H       1  UNL1        0.1738
     24 S          63.0208   84.0903   10.8402 S.O2    1  UNL1        0.0751
     25 O          64.2485   83.3076   10.4794 O.2     1  UNL1       -0.1499
     26 O          61.7931   84.8729   11.2010 O.2     1  UNL1       -0.1499
     27 C          62.7649   83.1595   11.9884 C.ar    1  UNL1        0.1442
     28 C          62.7205   81.6781   11.7574 C.ar    1  UNL1        0.0234
     29 C          62.4646   80.7473   12.9055 C.ar    1  UNL1        0.0221
     30 C          62.2531   81.2980   14.2847 C.ar    1  UNL1        0.0990
     31 N          62.2976   82.7794   14.5157 N.ar    1  UNL1       -0.2409
     32 C          62.5535   83.7102   13.3676 C.ar    1  UNL1        0.1190
@<TRIPOS>BOND
     1    20    21    3
     2    21    11    1
     3    11    12    2
     4    12    13    1
     5    13    14    2
     6    14    15    1
     7    15    16    2
     8    16    17    1
     9    17     9    1
    10     9    10    2
    11     9     1    1
    12     1     2   ar
    13     2     3    1
    14     2     4   ar
    15     4     5   ar
    16     5     6   ar
    17     6    22    1
    18    22    24    1
    19    24    25    2
    20    24    26    2
    21    24    27    1
    22    27    28   ar
    23    28    29   ar
    24    29    30   ar
    25    30    31   ar
    26    31    32   ar
    27     6     7   ar
    28     7     8    1
    29    17    18    2
    30    18    19    1
    31    19    11    1
    32    18    14    1
    33     7     1   ar
    34    32    27   ar
    35    22    23    1
@<TRIPOS>MOLECULE
*****
 32 35 0 0 0
SMALL
GASTEIGER

@<TRIPOS>ATOM
      1 C          63.6663   90.7559   12.8213 C.ar    1  UNL1        0.0951
      2 C          63.6427   90.5025   14.2995 C.ar    1  UNL1        0.1454
      3 F          62.4681   89.8083   14.9228 F       1  UNL1       -0.2040
      4 C          64.7936   90.9434   15.1545 C.ar    1  UNL1        0.0312
      5 C          65.9682   91.6376   14.5313 C.ar    1  UNL1        0.0204
      6 C          65.9917   91.8910   13.0529 C.ar    1  UNL1        0.0924
      7 C          64.8408   91.4502   12.1979 C.ar    1  UNL1        0.1598
      8 F          64.8644   91.7036   10.7197 F       1  UNL1       -0.2026
      9 C          62.5153   90.3150   11.9663 C.2     1  UNL1        0.2036
     10 O          61.4999   91.3163   11.5012 O.2     1  UNL1       -0.2863
     11 C          60.1681   88.2295    8.2437 C.2     1  UNL1        0.0974
     12 C          60.2984   86.7353    8.2371 C.2     1  UNL1        0.2421
     13 N          61.0904   86.0467    9.3089 N.2     1  UNL1       -0.0304
     14 C          61.7521   86.8525   10.3872 C.2     1  UNL1        0.3721
     15 N          62.5907   86.4551   11.5657 N.2     1  UNL1       -0.0307
     16 C          62.9786   87.7038   12.3007 C.2     1  UNL1        0.2390
     17 C          62.3799   88.8730   11.5765 C.2     1  UNL1        0.0896
     18 C          61.6219   88.3467   10.3938 C.2     1  UNL1        0.0782
     19 C          60.8298   89.0353    9.3221 C.3     1  UNL1        0.0751
     20 N          58.5841   89.6066    6.1003 N.1     1  UNL1       -0.1910
     21 C          59.3761   88.9181    7.1720 C.1     1  UNL1        0.1003
     22 N          67.1663   92.5853   12.4297 N.pl3   1  UNL1       -0.2128
     23 H          68.0816   92.3405   12.6972 H       1  UNL1        0.1738
     24 S          66.9463   93.6524   11.3988 S.O2    1  UNL1        0.0751
     25 O          67.6915   92.8308   10.3891 O.2     1  UNL1       -0.1499
     26 O          66.2011   94.4742   12.4084 O.2     1  UNL1       -0.1499
     27 C          66.7263   94.7197   10.3679 C.ar    1  UNL1        0.1442
     28 C          67.6822   94.8628    9.2208 C.ar    1  UNL1        0.0234
     29 C          67.4623   95.9300    8.1899 C.ar    1  UNL1        0.0221
     30 C          66.2864   96.8540    8.3061 C.ar    1  UNL1        0.0990
     31 N          65.3305   96.7109    9.4531 N.ar    1  UNL1       -0.2409
     32 C          65.5504   95.6437   10.4840 C.ar    1  UNL1        0.1190
@<TRIPOS>BOND
     1    20    21    3
     2    21    11    1
     3    11    12    2
     4    12    13    1
     5    13    14    2
     6    14    15    1
     7    15    16    2
     8    16    17    1
     9    17     9    1
    10     9    10    2
    11     9     1    1
    12     1     2   ar
    13     2     3    1
    14     2     4   ar
    15     4     5   ar
    16     5     6   ar
    17     6    22    1
    18    22    24    1
    19    24    25    2
    20    24    26    2
    21    24    27    1
    22    27    28   ar
    23    28    29   ar
    24    29    30   ar
    25    30    31   ar
    26    31    32   ar
    27     6     7   ar
    28     7     8    1
    29    17    18    2
    30    18    19    1
    31    19    11    1
    32    18    14    1
    33     7     1   ar
    34    32    27   ar
    35    22    23    1
@<TRIPOS>MOLECULE
*****
 32 35 0 0 0
SMALL
GASTEIGER

@<TRIPOS>ATOM
      1 C          61.8503   86.6431   10.3166 C.ar    1  UNL1        0.0951
      2 C          60.7952   86.6479    9.2504 C.ar    1  UNL1        0.1454
      3 F          60.5480   85.4138    8.4344 F       1  UNL1       -0.2040
      4 C          59.9875   87.8868    9.0001 C.ar    1  UNL1        0.0312
      5 C          60.2347   89.1209    9.8161 C.ar    1  UNL1        0.0204
      6 C          61.2898   89.1160   10.8824 C.ar    1  UNL1        0.0924
      7 C          62.0976   87.8772   11.1326 C.ar    1  UNL1        0.1598
      8 F          63.1526   87.8724   12.1989 F       1  UNL1       -0.2026
      9 C          62.6581   85.4042   10.5668 C.2     1  UNL1        0.2036
     10 O          63.4198   84.7658    9.4433 O.2     1  UNL1       -0.2863
     11 C          62.7683   80.7534   12.0073 C.2     1  UNL1        0.0974
     12 C          62.8105   80.6070   13.4995 C.2     1  UNL1        0.2421
     13 N          62.8151   81.8265   14.3729 N.2     1  UNL1       -0.0304
     14 C          62.7775   83.1923   13.7542 C.2     1  UNL1        0.3721
     15 N          62.7725   84.5667   14.3551 N.2     1  UNL1       -0.0307
     16 C          62.7271   85.5625   13.2343 C.2     1  UNL1        0.2390
     17 C          62.7041   84.8037   11.9406 C.2     1  UNL1        0.0896
     18 C          62.7353   83.3388   12.2620 C.2     1  UNL1        0.0782
     19 C          62.7307   82.1193   11.3885 C.3     1  UNL1        0.0751
     20 N          62.7590   78.3145   10.2604 N.1     1  UNL1       -0.1910
     21 C          62.7636   79.5340   11.1338 C.1     1  UNL1        0.1003
     22 N          61.5370   90.3502   11.6983 N.pl3   1  UNL1       -0.2128
     23 H          60.7951   90.7735   12.1878 H       1  UNL1        0.1738
     24 S          62.9147   90.9393   11.7686 S.O2    1  UNL1        0.0751
     25 O          62.8543   91.2555   10.3036 O.2     1  UNL1       -0.1499
     26 O          62.9752   90.6232   13.2337 O.2     1  UNL1       -0.1499
     27 C          64.2924   91.5285   11.8390 C.ar    1  UNL1        0.1442
     28 C          64.9014   92.1591   10.6218 C.ar    1  UNL1        0.0234
     29 C          66.2791   92.7482   10.6921 C.ar    1  UNL1        0.0221
     30 C          67.0478   92.7067   11.9795 C.ar    1  UNL1        0.0990
     31 N          66.4388   92.0761   13.1966 N.ar    1  UNL1       -0.2409
     32 C          65.0611   91.4870   13.1264 C.ar    1  UNL1        0.1190
@<TRIPOS>BOND
     1    20    21    3
     2    21    11    1
     3    11    12    2
     4    12    13    1
     5    13    14    2
     6    14    15    1
     7    15    16    2
     8    16    17    1
     9    17     9    1
    10     9    10    2
    11     9     1    1
    12     1     2   ar
    13     2     3    1
    14     2     4   ar
    15     4     5   ar
    16     5     6   ar
    17     6    22    1
    18    22    24    1
    19    24    25    2
    20    24    26    2
    21    24    27    1
    22    27    28   ar
    23    28    29   ar
    24    29    30   ar
    25    30    31   ar
    26    31    32   ar
    27     6     7   ar
    28     7     8    1
    29    17    18    2
    30    18    19    1
    31    19    11    1
    32    18    14    1
    33     7     1   ar
    34    32    27   ar
    35    22    23    1
@<TRIPOS>MOLECULE
*****
 32 35 0 0 0
SMALL
GASTEIGER

@<TRIPOS>ATOM
      1 C          64.0012   86.8792   15.2987 C.ar    1  UNL1        0.0951
      2 C          63.3559   86.4542   16.5843 C.ar    1  UNL1        0.1454
      3 F          63.2639   84.9978   16.9316 F       1  UNL1       -0.2040
      4 C          62.8024   87.4854   17.5225 C.ar    1  UNL1        0.0312
      5 C          62.8944   88.9417   17.1752 C.ar    1  UNL1        0.0204
      6 C          63.5398   89.3668   15.8895 C.ar    1  UNL1        0.0924
      7 C          64.0932   88.3356   14.9513 C.ar    1  UNL1        0.1598
      8 F          64.7386   88.7607   13.6657 F       1  UNL1       -0.2026
      9 C          64.5547   85.8480   14.3604 C.2     1  UNL1        0.2036
     10 O          65.9829   85.4077   14.4878 O.2     1  UNL1       -0.2863
     11 C          62.1629   87.9502   10.6758 C.2     1  UNL1        0.0974
     12 C          61.3982   86.9661    9.8413 C.2     1  UNL1        0.2421
     13 N          61.4291   85.5066   10.1861 N.2     1  UNL1       -0.0304
     14 C          62.2248   85.0312   11.3654 C.2     1  UNL1        0.3721
     15 N          62.4424   83.6647   11.9444 N.2     1  UNL1       -0.0307
     16 C          63.3417   83.8044   13.1369 C.2     1  UNL1        0.2390
     17 C          63.6799   85.2572   13.2948 C.2     1  UNL1        0.0896
     18 C          62.9896   86.0154   12.2000 C.2     1  UNL1        0.0782
     19 C          62.9586   87.4749   11.8552 C.3     1  UNL1        0.0751
     20 N          62.1010   90.8693    9.9862 N.1     1  UNL1       -0.1910
     21 C          62.1319   89.4098   10.3310 C.1     1  UNL1        0.1003
     22 N          63.6317   90.8231   15.5422 N.pl3   1  UNL1       -0.2128
     23 H          63.1198   91.4859   16.0598 H       1  UNL1        0.1738
     24 S          64.5037   91.2696   14.4063 S.O2    1  UNL1        0.0751
     25 O          65.6904   91.2856   15.3235 O.2     1  UNL1       -0.1499
     26 O          63.3169   91.2538   13.4891 O.2     1  UNL1       -0.1499
     27 C          65.3756   91.7162   13.2703 C.ar    1  UNL1        0.1442
     28 C          64.7743   91.9774   11.9212 C.ar    1  UNL1        0.0234
     29 C          65.6462   92.4239   10.7852 C.ar    1  UNL1        0.0221
     30 C          67.1193   92.6093   10.9984 C.ar    1  UNL1        0.0990
     31 N          67.7207   92.3481   12.3475 N.ar    1  UNL1       -0.2409
     32 C          66.8488   91.9016   13.4835 C.ar    1  UNL1        0.1190
@<TRIPOS>BOND
     1    20    21    3
     2    21    11    1
     3    11    12    2
     4    12    13    1
     5    13    14    2
     6    14    15    1
     7    15    16    2
     8    16    17    1
     9    17     9    1
    10     9    10    2
    11     9     1    1
    12     1     2   ar
    13     2     3    1
    14     2     4   ar
    15     4     5   ar
    16     5     6   ar
    17     6    22    1
    18    22    24    1
    19    24    25    2
    20    24    26    2
    21    24    27    1
    22    27    28   ar
    23    28    29   ar
    24    29    30   ar
    25    30    31   ar
    26    31    32   ar
    27     6     7   ar
    28     7     8    1
    29    17    18    2
    30    18    19    1
    31    19    11    1
    32    18    14    1
    33     7     1   ar
    34    32    27   ar
    35    22    23    1
@<TRIPOS>MOLECULE
*****
 32 35 0 0 0
SMALL
GASTEIGER

@<TRIPOS>ATOM
      1 C          62.7632   88.3134   12.2607 C.ar    1  UNL1        0.0951
      2 C          63.5692   87.7141   13.3747 C.ar    1  UNL1        0.1454
      3 F          63.4501   86.2510   13.6835 F       1  UNL1       -0.2040
      4 C          64.4944   88.5776   14.1798 C.ar    1  UNL1        0.0312
      5 C          64.6135   90.0407   13.8710 C.ar    1  UNL1        0.0204
      6 C          63.8074   90.6400   12.7569 C.ar    1  UNL1        0.0924
      7 C          62.8822   89.7765   11.9518 C.ar    1  UNL1        0.1598
      8 F          62.0762   90.3759   10.8378 F       1  UNL1       -0.2026
      9 C          61.8380   87.4498   11.4555 C.2     1  UNL1        0.2036
     10 O          60.3534   87.5765   11.6283 O.2     1  UNL1       -0.2863
     11 C          63.0891   82.7771   12.0186 C.2     1  UNL1        0.0974
     12 C          63.6132   82.1587   10.7565 C.2     1  UNL1        0.2421
     13 N          63.7043   82.9763    9.5023 N.2     1  UNL1       -0.0304
     14 C          63.2713   84.4124    9.5100 C.2     1  UNL1        0.3721
     15 N          63.2455   85.4588    8.4356 N.2     1  UNL1       -0.0307
     16 C          62.7055   86.7240    9.0336 C.2     1  UNL1        0.2390
     17 C          62.3975   86.4595   10.4776 C.2     1  UNL1        0.0896
     18 C          62.7472   85.0308   10.7720 C.2     1  UNL1        0.0782
     19 C          62.6561   84.2132   12.0263 C.3     1  UNL1        0.0751
     20 N          62.9069   81.1419   14.5271 N.1     1  UNL1       -0.1910
     21 C          62.9980   81.9595   13.2728 C.1     1  UNL1        0.1003
     22 N          63.9266   92.1031   12.4481 N.pl3   1  UNL1       -0.2128
     23 H          63.2626   92.7369   12.8039 H       1  UNL1        0.1738
     24 S          65.0573   92.6003   11.5971 S.O2    1  UNL1        0.0751
     25 O          65.7710   93.0805   12.8259 O.2     1  UNL1       -0.1499
     26 O          64.3437   92.1202   10.3683 O.2     1  UNL1       -0.1499
     27 C          66.1881   93.0976   10.7461 C.ar    1  UNL1        0.1442
     28 C          67.2671   92.1530   10.3060 C.ar    1  UNL1        0.0234
     29 C          68.3978   92.6502    9.4550 C.ar    1  UNL1        0.0221
     30 C          68.4496   94.0919    9.0441 C.ar    1  UNL1        0.0990
     31 N          67.3707   95.0364    9.4842 N.ar    1  UNL1       -0.2409
     32 C          66.2399   94.5392   10.3352 C.ar    1  UNL1        0.1190
@<TRIPOS>BOND
     1    20    21    3
     2    21    11    1
     3    11    12    2
     4    12    13    1
     5    13    14    2
     6    14    15    1
     7    15    16    2
     8    16    17    1
     9    17     9    1
    10     9    10    2
    11     9     1    1
    12     1     2   ar
    13     2     3    1
    14     2     4   ar
    15     4     5   ar
    16     5     6   ar
    17     6    22    1
    18    22    24    1
    19    24    25    2
    20    24    26    2
    21    24    27    1
    22    27    28   ar
    23    28    29   ar
    24    29    30   ar
    25    30    31   ar
    26    31    32   ar
    27     6     7   ar
    28     7     8    1
    29    17    18    2
    30    18    19    1
    31    19    11    1
    32    18    14    1
    33     7     1   ar
    34    32    27   ar
    35    22    23    1
@<TRIPOS>MOLECULE
*****
 32 35 0 0 0
SMALL
GASTEIGER

@<TRIPOS>ATOM
      1 C          61.2132   88.2994    9.9441 C.ar    1  UNL1        0.0951
      2 C          60.2738   87.9306    8.8344 C.ar    1  UNL1        0.1454
      3 F          59.2109   88.8957    8.3999 F       1  UNL1       -0.2040
      4 C          60.3973   86.5969    8.1592 C.ar    1  UNL1        0.0312
      5 C          61.4602   85.6318    8.5938 C.ar    1  UNL1        0.0204
      6 C          62.3997   86.0006    9.7036 C.ar    1  UNL1        0.0924
      7 C          62.2762   87.3343   10.3787 C.ar    1  UNL1        0.1598
      8 F          63.2157   87.7030   11.4885 F       1  UNL1       -0.2026
      9 C          61.0898   89.6331   10.6193 C.2     1  UNL1        0.2036
     10 O          60.2113   90.6950   10.0272 O.2     1  UNL1       -0.2863
     11 C          65.1115   92.2571   11.4297 C.2     1  UNL1        0.0974
     12 C          65.5252   92.2581   12.8715 C.2     1  UNL1        0.2421
     13 N          64.7190   91.4995   13.8837 N.2     1  UNL1       -0.0304
     14 C          63.4990   90.7399   13.4541 C.2     1  UNL1        0.3721
     15 N          62.5143   89.9066   14.2195 N.2     1  UNL1       -0.0307
     16 C          61.4919   89.3905   13.2507 C.2     1  UNL1        0.2390
     17 C          61.8447   89.9049   11.8866 C.2     1  UNL1        0.0896
     18 C          63.0853   90.7389   12.0123 C.2     1  UNL1        0.0782
     19 C          63.8915   91.4975   11.0001 C.3     1  UNL1        0.0751
     20 N          66.7240   93.7742    9.4053 N.1     1  UNL1       -0.1910
     21 C          65.9177   93.0156   10.4175 C.1     1  UNL1        0.1003
     22 N          63.4626   85.0355   10.1381 N.pl3   1  UNL1       -0.2128
     23 H          64.3701   85.1007    9.7621 H       1  UNL1        0.1738
     24 S          63.1428   83.9712   11.1455 S.O2    1  UNL1        0.0751
     25 O          62.2310   84.9228   11.8616 O.2     1  UNL1       -0.1499
     26 O          64.0547   83.0194   10.4295 O.2     1  UNL1       -0.1499
     27 C          62.8230   82.9067   12.1530 C.ar    1  UNL1        0.1442
     28 C          62.8252   81.4633   11.7451 C.ar    1  UNL1        0.0234
     29 C          62.5054   80.3988   12.7525 C.ar    1  UNL1        0.0221
     30 C          62.1835   80.7779   14.1676 C.ar    1  UNL1        0.0990
     31 N          62.1814   82.2214   14.5755 N.ar    1  UNL1       -0.2409
     32 C          62.5011   83.2858   13.5681 C.ar    1  UNL1        0.1190
@<TRIPOS>BOND
     1    20    21    3
     2    21    11    1
     3    11    12    2
     4    12    13    1
     5    13    14    2
     6    14    15    1
     7    15    16    2
     8    16    17    1
     9    17     9    1
    10     9    10    2
    11     9     1    1
    12     1     2   ar
    13     2     3    1
    14     2     4   ar
    15     4     5   ar
    16     5     6   ar
    17     6    22    1
    18    22    24    1
    19    24    25    2
    20    24    26    2
    21    24    27    1
    22    27    28   ar
    23    28    29   ar
    24    29    30   ar
    25    30    31   ar
    26    31    32   ar
    27     6     7   ar
    28     7     8    1
    29    17    18    2
    30    18    19    1
    31    19    11    1
    32    18    14    1
    33     7     1   ar
    34    32    27   ar
    35    22    23    1
@<TRIPOS>MOLECULE
*****
 32 35 0 0 0
SMALL
GASTEIGER

@<TRIPOS>ATOM
      1 C          63.4122   85.9773   13.4045 C.ar    1  UNL1        0.0951
      2 C          64.4383   85.9171   14.4969 C.ar    1  UNL1        0.1454
      3 F          64.9532   84.5900   14.9698 F       1  UNL1       -0.2040
      4 C          64.9494   87.1839   15.1165 C.ar    1  UNL1        0.0312
      5 C          64.4345   88.5111   14.6436 C.ar    1  UNL1        0.0204
      6 C          63.4084   88.5712   13.5511 C.ar    1  UNL1        0.0924
      7 C          62.8972   87.3044   12.9315 C.ar    1  UNL1        0.1598
      8 F          61.8712   87.3647   11.8390 F       1  UNL1       -0.2026
      9 C          62.9011   84.7105   12.7849 C.2     1  UNL1        0.2036
     10 O          61.9802   83.8151   13.5596 O.2     1  UNL1       -0.2863
     11 C          61.0528   86.0078    8.4701 C.2     1  UNL1        0.0974
     12 C          61.7845   85.3921    7.3145 C.2     1  UNL1        0.2421
     13 N          62.9522   84.4843    7.5640 N.2     1  UNL1       -0.0304
     14 C          63.3882   84.1921    8.9692 C.2     1  UNL1        0.3721
     15 N          64.4949   83.3429    9.5207 N.2     1  UNL1       -0.0307
     16 C          64.4471   83.4338   11.0172 C.2     1  UNL1        0.2390
     17 C          63.3109   84.3391   11.3906 C.2     1  UNL1        0.0896
     18 C          62.6565   84.8077   10.1248 C.2     1  UNL1        0.0782
     19 C          61.4888   85.7156    9.8753 C.3     1  UNL1        0.0751
     20 N          58.7174   87.8235    7.9711 N.1     1  UNL1       -0.1910
     21 C          59.8851   86.9156    8.2206 C.1     1  UNL1        0.1003
     22 N          62.8934   89.8983   13.0782 N.pl3   1  UNL1       -0.2128
     23 H          61.9253   90.0771   13.0725 H       1  UNL1        0.1738
     24 S          63.8535   90.9532   12.6139 S.O2    1  UNL1        0.0751
     25 O          63.9324   91.4959   14.0099 O.2     1  UNL1       -0.1499
     26 O          63.7747   90.4104   11.2178 O.2     1  UNL1       -0.1499
     27 C          64.8137   92.0080   12.1495 C.ar    1  UNL1        0.1442
     28 C          64.8427   92.4123   10.7053 C.ar    1  UNL1        0.0234
     29 C          65.8028   93.4671   10.2409 C.ar    1  UNL1        0.0221
     30 C          66.7338   94.1175   11.2207 C.ar    1  UNL1        0.0990
     31 N          66.7048   93.7132   12.6649 N.ar    1  UNL1       -0.2409
     32 C          65.7448   92.6585   13.1293 C.ar    1  UNL1        0.1190
@<TRIPOS>BOND
     1    20    21    3
     2    21    11    1
     3    11    12    2
     4    12    13    1
     5    13    14    2
     6    14    15    1
     7    15    16    2
     8    16    17    1
     9    17     9    1
    10     9    10    2
    11     9     1    1
    12     1     2   ar
    13     2     3    1
    14     2     4   ar
    15     4     5   ar
    16     5     6   ar
    17     6    22    1
    18    22    24    1
    19    24    25    2
    20    24    26    2
    21    24    27    1
    22    27    28   ar
    23    28    29   ar
    24    29    30   ar
    25    30    31   ar
    26    31    32   ar
    27     6     7   ar
    28     7     8    1
    29    17    18    2
    30    18    19    1
    31    19    11    1
    32    18    14    1
    33     7     1   ar
    34    32    27   ar
    35    22    23    1
@<TRIPOS>MOLECULE
*****
 32 35 0 0 0
SMALL
GASTEIGER

@<TRIPOS>ATOM
      1 C          60.6881   94.7448   -1.3021 C.ar    1  UNL1        0.0951
      2 C          60.8395   94.0242   -2.6089 C.ar    1  UNL1        0.1454
      3 F          62.2040   93.8119   -3.1945 F       1  UNL1       -0.2040
      4 C          59.6264   93.5159   -3.3301 C.ar    1  UNL1        0.0312
      5 C          58.2619   93.7282   -2.7445 C.ar    1  UNL1        0.0204
      6 C          58.1105   94.4488   -1.4376 C.ar    1  UNL1        0.0924
      7 C          59.3236   94.9571   -0.7164 C.ar    1  UNL1        0.1598
      8 F          59.1721   95.6777    0.5904 F       1  UNL1       -0.2026
      9 C          61.9011   95.2530   -0.5809 C.2     1  UNL1        0.2036
     10 O          62.2499   96.7109   -0.6351 O.2     1  UNL1       -0.2863
     11 C          60.8812   92.4198    3.2465 C.2     1  UNL1        0.0974
     12 C          62.0623   91.6195    3.7095 C.2     1  UNL1        0.2421
     13 N          63.3788   91.7474    3.0021 N.2     1  UNL1       -0.0304
     14 C          63.5143   92.6757    1.8317 C.2     1  UNL1        0.3721
     15 N          64.6765   93.0084    0.9437 N.2     1  UNL1       -0.0307
     16 C          64.2137   94.0144   -0.0682 C.2     1  UNL1        0.2390
     17 C          62.7654   94.3034    0.1945 C.2     1  UNL1        0.0896
     18 C          62.3332   93.4760    1.3687 C.2     1  UNL1        0.0782
     19 C          61.0167   93.3481    2.0761 C.3     1  UNL1        0.0751
     20 N          58.2482   92.1639    4.6612 N.1     1  UNL1       -0.1910
     21 C          59.5647   92.2919    3.9539 C.1     1  UNL1        0.1003
     22 N          56.7459   94.6611   -0.8520 N.pl3   1  UNL1       -0.2128
     23 H          56.5991   94.5331    0.1131 H       1  UNL1        0.1738
     24 S          55.6052   95.0684   -1.7367 S.O2    1  UNL1        0.0751
     25 O          56.2084   96.4336   -1.8861 O.2     1  UNL1       -0.1499
     26 O          55.0019   93.7033   -1.5872 O.2     1  UNL1       -0.1499
     27 C          54.4643   95.4757   -2.6214 C.ar    1  UNL1        0.1442
     28 C          53.1002   95.6894   -2.0354 C.ar    1  UNL1        0.0234
     29 C          51.9593   96.0967   -2.9201 C.ar    1  UNL1        0.0221
     30 C          52.1826   96.2902   -4.3907 C.ar    1  UNL1        0.0990
     31 N          53.5468   96.0765   -4.9767 N.ar    1  UNL1       -0.2409
     32 C          54.6876   95.6692   -4.0920 C.ar    1  UNL1        0.1190
@<TRIPOS>BOND
     1    20    21    3
     2    21    11    1
     3    11    12    2
     4    12    13    1
     5    13    14    2
     6    14    15    1
     7    15    16    2
     8    16    17    1
     9    17     9    1
    10     9    10    2
    11     9     1    1
    12     1     2   ar
    13     2     3    1
    14     2     4   ar
    15     4     5   ar
    16     5     6   ar
    17     6    22    1
    18    22    24    1
    19    24    25    2
    20    24    26    2
    21    24    27    1
    22    27    28   ar
    23    28    29   ar
    24    29    30   ar
    25    30    31   ar
    26    31    32   ar
    27     6     7   ar
    28     7     8    1
    29    17    18    2
    30    18    19    1
    31    19    11    1
    32    18    14    1
    33     7     1   ar
    34    32    27   ar
    35    22    23    1
@<TRIPOS>MOLECULE
*****
 32 35 0 0 0
SMALL
GASTEIGER

@<TRIPOS>ATOM
      1 C          63.1426   86.4161   12.7474 C.ar    1  UNL1        0.0951
      2 C          64.0405   86.0118   13.8788 C.ar    1  UNL1        0.1454
      3 F          64.3815   84.5658   14.0857 F       1  UNL1       -0.2040
      4 C          64.5975   87.0534   14.8034 C.ar    1  UNL1        0.0312
      5 C          64.2565   88.4994   14.5965 C.ar    1  UNL1        0.0204
      6 C          63.3586   88.9038   13.4650 C.ar    1  UNL1        0.0924
      7 C          62.8016   87.8621   12.5404 C.ar    1  UNL1        0.1598
      8 F          61.9037   88.2666   11.4089 F       1  UNL1       -0.2026
      9 C          62.5856   85.3745   11.8228 C.2     1  UNL1        0.2036
     10 O          61.3351   85.6550   11.0434 O.2     1  UNL1       -0.2863
     11 C          61.3325   80.9332   13.3786 C.2     1  UNL1        0.0974
     12 C          62.3350   79.8815   13.0061 C.2     1  UNL1        0.2421
     13 N          63.5646   80.2575   12.2337 N.2     1  UNL1       -0.0304
     14 C          63.7917   81.6852   11.8338 C.2     1  UNL1        0.3721
     15 N          64.9013   82.3507   11.0749 N.2     1  UNL1       -0.0307
     16 C          64.5846   83.8137   10.9784 C.2     1  UNL1        0.2390
     17 C          63.2792   84.0525   11.6776 C.2     1  UNL1        0.0896
     18 C          62.7892   82.7369   12.2063 C.2     1  UNL1        0.0782
     19 C          61.5596   82.3609   12.9787 C.3     1  UNL1        0.0751
     20 N          58.8733   80.1812   14.9235 N.1     1  UNL1       -0.1910
     21 C          60.1029   80.5572   14.1511 C.1     1  UNL1        0.1003
     22 N          63.0176   90.3498   13.2581 N.pl3   1  UNL1       -0.2128
     23 H          62.1229   90.6837   13.4974 H       1  UNL1        0.1738
     24 S          64.0398   91.2870   12.6866 S.O2    1  UNL1        0.0751
     25 O          64.5061   91.6233   14.0720 O.2     1  UNL1       -0.1499
     26 O          63.5736   90.9508   11.3011 O.2     1  UNL1       -0.1499
     27 C          65.0621   92.2243   12.1150 C.ar    1  UNL1        0.1442
     28 C          65.1954   92.3725   10.6284 C.ar    1  UNL1        0.0234
     29 C          66.2176   93.3098   10.0568 C.ar    1  UNL1        0.0221
     30 C          67.1064   94.0988   10.9719 C.ar    1  UNL1        0.0990
     31 N          66.9731   93.9506   12.4585 N.ar    1  UNL1       -0.2409
     32 C          65.9509   93.0134   13.0301 C.ar    1  UNL1        0.1190
@<TRIPOS>BOND
     1    20    21    3
     2    21    11    1
     3    11    12    2
     4    12    13    1
     5    13    14    2
     6    14    15    1
     7    15    16    2
     8    16    17    1
     9    17     9    1
    10     9    10    2
    11     9     1    1
    12     1     2   ar
    13     2     3    1
    14     2     4   ar
    15     4     5   ar
    16     5     6   ar
    17     6    22    1
    18    22    24    1
    19    24    25    2
    20    24    26    2
    21    24    27    1
    22    27    28   ar
    23    28    29   ar
    24    29    30   ar
    25    30    31   ar
    26    31    32   ar
    27     6     7   ar
    28     7     8    1
    29    17    18    2
    30    18    19    1
    31    19    11    1
    32    18    14    1
    33     7     1   ar
    34    32    27   ar
    35    22    23    1
