@<TRIPOS>MOLECULE
*****
 30 32 0 0 0
SMALL
GASTEIGER

@<TRIPOS>ATOM
      1 C          65.3374   91.8062   12.4087 C.ar    1  UNL1       -0.0005
      2 C          65.0513   90.8645   13.5407 C.ar    1  UNL1       -0.0024
      3 C          63.9108   89.8955   13.4401 C.ar    1  UNL1       -0.0002
      4 C          63.0563   89.8681   12.2076 C.ar    1  UNL1        0.0030
      5 C          61.9158   88.8991   12.1070 C.ar    1  UNL1        0.0369
      6 C          61.0613   88.8717   10.8745 C.ar    1  UNL1        0.1386
      7 C          61.3474   89.8134    9.7425 C.ar    1  UNL1        0.0369
      8 C          62.4880   90.7824    9.8431 C.ar    1  UNL1        0.0031
      9 C          63.3424   90.8098   11.0756 C.ar    1  UNL1       -0.0001
     10 C          64.4829   91.7788   11.1762 C.ar    1  UNL1       -0.0024
     11 C          66.4780   92.7753   12.5092 C.3     1  UNL1        0.1227
     12 N          67.2185   92.9302   13.8045 N.ar    1  UNL1       -0.3045
     13 C          68.4505   92.1774   14.2112 C.ar    1  UNL1        0.0983
     14 C          68.8505   92.6471   15.5784 C.ar    1  UNL1        0.1193
     15 N          67.8657   93.6901   16.0168 N.ar    1  UNL1       -0.2223
     16 C          66.8571   93.8651   14.9204 C.ar    1  UNL1        0.1788
     17 C          66.8779   93.5894   11.3146 C.3     1  UNL1        0.0685
     18 C          66.1503   94.7738   11.8782 C.3     1  UNL1        0.0183
     19 C          67.6055   92.4049   10.7510 C.3     1  UNL1        0.0183
     20 C          68.0429   93.7645    8.9989 C.3     1  UNL1        0.0897
     21 N          67.2779   94.4035   10.1199 N.3     1  UNL1       -0.2707
     22 C          66.9129   95.8565   10.0461 C.3     1  UNL1        0.0897
     23 O          59.9208   87.9027   10.7739 O.3     1  UNL1       -0.4751
     24 C          59.4453   87.4410    9.4282 C.3     1  UNL1        0.2103
     25 C          60.3080   86.5385    8.5970 C.3     1  UNL1        0.0724
     26 C          59.5902   86.9913    7.3602 C.3     1  UNL1        0.0093
     27 C          61.0259   86.0856    9.8337 C.3     1  UNL1        0.0093
     28 C          61.1708   85.6359    7.7657 C.2     1  UNL1        0.0532
     29 O          60.5723   84.8689    6.6239 O.co2   1  UNL1       -0.5491
     30 O          62.6320   85.5003    8.0762 O.co2   1  UNL1       -0.5491
@<TRIPOS>UNITY_ATOM_ATTR
29 1
charge -1
@<TRIPOS>BOND
     1    20    21    1
     2    21    22    1
     3    21    17    1
     4    17    18    1
     5    17    19    1
     6    11    17    1
     7    11     1    1
     8     1     2   ar
     9     2     3   ar
    10     3     4   ar
    11     4     5   ar
    12     5     6   ar
    13     6    23    1
    14    23    24    1
    15    24    25    1
    16    25    26    1
    17    25    27    1
    18    25    28    1
    19    28    29   ar
    20    28    30   ar
    21     6     7   ar
    22     7     8   ar
    23     8     9   ar
    24     9    10   ar
    25    11    12    1
    26    12    13   ar
    27    13    14   ar
    28    14    15   ar
    29    15    16   ar
    30    10     1   ar
    31    16    12   ar
    32     9     4   ar
@<TRIPOS>MOLECULE
*****
 30 32 0 0 0
SMALL
GASTEIGER

@<TRIPOS>ATOM
      1 C          65.3033   91.9159   12.3422 C.ar    1  UNL1       -0.0005
      2 C          65.0223   91.0026   13.4984 C.ar    1  UNL1       -0.0024
      3 C          63.8972   90.0139   13.4169 C.ar    1  UNL1       -0.0002
      4 C          63.0531   89.9386   12.1793 C.ar    1  UNL1        0.0030
      5 C          61.9280   88.9499   12.0978 C.ar    1  UNL1        0.0369
      6 C          61.0838   88.8746   10.8602 C.ar    1  UNL1        0.1386
      7 C          61.3648   89.7881    9.7040 C.ar    1  UNL1        0.0369
      8 C          62.4899   90.7767    9.7854 C.ar    1  UNL1        0.0031
      9 C          63.3341   90.8520   11.0231 C.ar    1  UNL1       -0.0001
     10 C          64.4591   91.8407   11.1046 C.ar    1  UNL1       -0.0024
     11 C          66.4284   92.9047   12.4236 C.3     1  UNL1        0.1227
     12 N          66.6169   93.9177   11.3336 N.ar    1  UNL1       -0.3045
     13 C          67.2763   93.6747   10.0084 C.ar    1  UNL1        0.0983
     14 C          67.2460   94.9585    9.2332 C.ar    1  UNL1        0.1193
     15 N          66.5680   95.9950   10.0793 N.ar    1  UNL1       -0.2223
     16 C          66.1792   95.3518   11.3774 C.ar    1  UNL1        0.1788
     17 C          67.3650   92.8803   13.5950 C.3     1  UNL1        0.0685
     18 C          68.1940   91.8344   12.9104 C.3     1  UNL1        0.0183
     19 C          66.5359   93.9262   14.2796 C.3     1  UNL1        0.0183
     20 C          69.7662   92.6143   14.5509 C.3     1  UNL1        0.0897
     21 N          68.3016   92.8559   14.7665 N.3     1  UNL1       -0.2707
     22 C          67.7735   93.0732   16.1535 C.3     1  UNL1        0.0897
     23 O          59.9587   87.8860   10.7787 O.3     1  UNL1       -0.4751
     24 C          59.4946   87.3864    9.4427 C.3     1  UNL1        0.2103
     25 C          60.3868   86.5044    8.6205 C.3     1  UNL1        0.0724
     26 C          61.0537   86.0133    9.8710 C.3     1  UNL1        0.0093
     27 C          59.7198   86.9955    7.3699 C.3     1  UNL1        0.0093
     28 C          61.2790   85.6224    7.7982 C.2     1  UNL1        0.0532
     29 O          60.7218   84.8841    6.6173 O.co2   1  UNL1       -0.5491
     30 O          62.7284   85.4788    8.1569 O.co2   1  UNL1       -0.5491
@<TRIPOS>UNITY_ATOM_ATTR
29 1
charge -1
@<TRIPOS>BOND
     1    20    21    1
     2    21    22    1
     3    21    17    1
     4    17    18    1
     5    17    19    1
     6    11    17    1
     7    11     1    1
     8     1     2   ar
     9     2     3   ar
    10     3     4   ar
    11     4     5   ar
    12     5     6   ar
    13     6    23    1
    14    23    24    1
    15    24    25    1
    16    25    26    1
    17    25    27    1
    18    25    28    1
    19    28    29   ar
    20    28    30   ar
    21     6     7   ar
    22     7     8   ar
    23     8     9   ar
    24     9    10   ar
    25    11    12    1
    26    12    13   ar
    27    13    14   ar
    28    14    15   ar
    29    15    16   ar
    30    10     1   ar
    31    16    12   ar
    32     9     4   ar
@<TRIPOS>MOLECULE
*****
 30 32 0 0 0
SMALL
GASTEIGER

@<TRIPOS>ATOM
      1 C          62.4593   87.5546   10.9311 C.ar    1  UNL1       -0.0005
      2 C          62.2752   88.8946   10.2828 C.ar    1  UNL1       -0.0024
      3 C          62.7383   90.1370   10.9841 C.ar    1  UNL1       -0.0002
      4 C          63.3855   90.0394   12.3338 C.ar    1  UNL1        0.0030
      5 C          63.8486   91.2819   13.0352 C.ar    1  UNL1        0.0369
      6 C          64.4957   91.1843   14.3849 C.ar    1  UNL1        0.1386
      7 C          64.6797   89.8442   15.0332 C.ar    1  UNL1        0.0369
      8 C          64.2166   88.6018   14.3319 C.ar    1  UNL1        0.0031
      9 C          63.5695   88.6994   12.9822 C.ar    1  UNL1       -0.0001
     10 C          63.1064   87.4570   12.2808 C.ar    1  UNL1       -0.0024
     11 C          61.9962   86.3121   10.2298 C.3     1  UNL1        0.1227
     12 N          60.9278   86.3973    9.1803 N.ar    1  UNL1       -0.3045
     13 C          59.6458   87.1686    9.2877 C.ar    1  UNL1        0.0983
     14 C          58.8795   86.9741    8.0130 C.ar    1  UNL1        0.1193
     15 N          59.6879   86.0825    7.1177 N.ar    1  UNL1       -0.2223
     16 C          60.9538   85.7260    7.8392 C.ar    1  UNL1        0.1788
     17 C          62.6014   84.9846   10.5779 C.3     1  UNL1        0.0685
     18 C          63.3092   84.9605    9.2556 C.3     1  UNL1        0.0183
     19 C          61.8936   85.0086   11.9002 C.3     1  UNL1        0.0183
     20 C          64.2638   83.0604   10.0449 C.3     1  UNL1        0.0897
     21 N          63.2066   83.6569   10.9261 N.3     1  UNL1       -0.2707
     22 C          62.7547   82.9259   12.1554 C.3     1  UNL1        0.0897
     23 O          64.9588   92.4267   15.0862 O.3     1  UNL1       -0.4751
     24 C          66.3711   92.9024   14.9151 C.3     1  UNL1        0.2103
     25 C          67.0921   92.6617   13.6220 C.3     1  UNL1        0.0724
     26 C          67.8608   91.5422   14.2589 C.3     1  UNL1        0.0093
     27 C          66.3234   93.7813   12.9851 C.3     1  UNL1        0.0093
     28 C          67.8131   92.4211   12.3288 C.2     1  UNL1        0.0532
     29 O          67.2947   93.0252   11.0574 O.co2   1  UNL1       -0.5491
     30 O          69.0525   91.5764   12.3070 O.co2   1  UNL1       -0.5491
@<TRIPOS>UNITY_ATOM_ATTR
29 1
charge -1
@<TRIPOS>BOND
     1    20    21    1
     2    21    22    1
     3    21    17    1
     4    17    18    1
     5    17    19    1
     6    11    17    1
     7    11     1    1
     8     1     2   ar
     9     2     3   ar
    10     3     4   ar
    11     4     5   ar
    12     5     6   ar
    13     6    23    1
    14    23    24    1
    15    24    25    1
    16    25    26    1
    17    25    27    1
    18    25    28    1
    19    28    29   ar
    20    28    30   ar
    21     6     7   ar
    22     7     8   ar
    23     8     9   ar
    24     9    10   ar
    25    11    12    1
    26    12    13   ar
    27    13    14   ar
    28    14    15   ar
    29    15    16   ar
    30    10     1   ar
    31    16    12   ar
    32     9     4   ar
@<TRIPOS>MOLECULE
*****
 30 32 0 0 0
SMALL
GASTEIGER

@<TRIPOS>ATOM
      1 C          62.6461   87.3229   10.9988 C.ar    1  UNL1       -0.0005
      2 C          62.4437   88.6411   10.3122 C.ar    1  UNL1       -0.0024
      3 C          62.8346   89.9141   11.0026 C.ar    1  UNL1       -0.0002
      4 C          63.4279   89.8689   12.3796 C.ar    1  UNL1        0.0030
      5 C          63.8188   91.1420   13.0700 C.ar    1  UNL1        0.0369
      6 C          64.4121   91.0968   14.4469 C.ar    1  UNL1        0.1386
      7 C          64.6144   89.7785   15.1335 C.ar    1  UNL1        0.0369
      8 C          64.2235   88.5055   14.4431 C.ar    1  UNL1        0.0031
      9 C          63.6302   88.5507   13.0662 C.ar    1  UNL1       -0.0001
     10 C          63.2393   87.2777   12.3758 C.ar    1  UNL1       -0.0024
     11 C          62.2552   86.0499   10.3084 C.3     1  UNL1        0.1227
     12 N          62.7513   84.7327   10.8269 N.ar    1  UNL1       -0.3045
     13 C          63.7441   83.8356   10.1489 C.ar    1  UNL1        0.0983
     14 C          63.9481   82.6298   11.0173 C.ar    1  UNL1        0.1193
     15 N          63.0815   82.7815   12.2322 N.ar    1  UNL1       -0.2223
     16 C          62.3418   84.0812   12.1145 C.ar    1  UNL1        0.1788
     17 C          61.3682   86.0940    9.0996 C.3     1  UNL1        0.0685
     18 C          62.5031   85.6060    8.2490 C.3     1  UNL1        0.0183
     19 C          60.2332   86.5821    9.9503 C.3     1  UNL1        0.0183
     20 C          59.3307   87.0995    7.8395 C.3     1  UNL1        0.0897
     21 N          60.4811   86.1382    7.8908 N.3     1  UNL1       -0.2707
     22 C          60.7443   85.2212    6.7334 C.3     1  UNL1        0.0897
     23 O          64.8030   92.3697   15.1373 O.3     1  UNL1       -0.4751
     24 C          66.2120   92.8748   15.0379 C.3     1  UNL1        0.2103
     25 C          67.0042   92.6455   13.7851 C.3     1  UNL1        0.0724
     26 C          66.2497   93.7496   13.1058 C.3     1  UNL1        0.0093
     27 C          67.7588   91.5413   14.4643 C.3     1  UNL1        0.0093
     28 C          67.7965   92.4161   12.5322 C.2     1  UNL1        0.0532
     29 O          69.0330   91.5678   12.5714 O.co2   1  UNL1       -0.5491
     30 O          67.3524   93.0352   11.2401 O.co2   1  UNL1       -0.5491
@<TRIPOS>UNITY_ATOM_ATTR
29 1
charge -1
@<TRIPOS>BOND
     1    20    21    1
     2    21    22    1
     3    21    17    1
     4    17    18    1
     5    17    19    1
     6    11    17    1
     7    11     1    1
     8     1     2   ar
     9     2     3   ar
    10     3     4   ar
    11     4     5   ar
    12     5     6   ar
    13     6    23    1
    14    23    24    1
    15    24    25    1
    16    25    26    1
    17    25    27    1
    18    25    28    1
    19    28    29   ar
    20    28    30   ar
    21     6     7   ar
    22     7     8   ar
    23     8     9   ar
    24     9    10   ar
    25    11    12    1
    26    12    13   ar
    27    13    14   ar
    28    14    15   ar
    29    15    16   ar
    30    10     1   ar
    31    16    12   ar
    32     9     4   ar
@<TRIPOS>MOLECULE
*****
 30 32 0 0 0
SMALL
GASTEIGER

@<TRIPOS>ATOM
      1 C          63.1006   86.5433   12.0119 C.ar    1  UNL1       -0.0005
      2 C          63.6585   86.0783   13.3243 C.ar    1  UNL1       -0.0024
      3 C          64.1343   87.0802   14.3342 C.ar    1  UNL1       -0.0002
      4 C          64.0521   88.5471   14.0316 C.ar    1  UNL1        0.0030
      5 C          64.5280   89.5490   15.0416 C.ar    1  UNL1        0.0369
      6 C          64.4458   91.0158   14.7390 C.ar    1  UNL1        0.1386
      7 C          63.8878   91.4808   13.4266 C.ar    1  UNL1        0.0369
      8 C          63.4121   90.4790   12.4167 C.ar    1  UNL1        0.0031
      9 C          63.4942   89.0121   12.7192 C.ar    1  UNL1       -0.0001
     10 C          63.0184   88.0102   11.7094 C.ar    1  UNL1       -0.0024
     11 C          62.6248   85.5415   11.0020 C.3     1  UNL1        0.1227
     12 N          63.0674   84.1115   11.0981 N.ar    1  UNL1       -0.3045
     13 C          62.4121   83.0388   11.9166 C.ar    1  UNL1        0.0983
     14 C          63.1827   81.7675   11.7170 C.ar    1  UNL1        0.1193
     15 N          64.3143   82.0544   10.7751 N.ar    1  UNL1       -0.2223
     16 C          64.2430   83.5031   10.3926 C.ar    1  UNL1        0.1788
     17 C          61.7064   85.9696    9.8960 C.3     1  UNL1        0.0685
     18 C          60.7110   86.4516   10.9091 C.3     1  UNL1        0.0183
     19 C          62.7019   85.4876    8.8828 C.3     1  UNL1        0.0183
     20 C          60.7873   85.6558    7.4862 C.3     1  UNL1        0.0897
     21 N          60.7881   86.3977    8.7899 N.3     1  UNL1       -0.2707
     22 C          59.8705   87.5678    8.9875 C.3     1  UNL1        0.0897
     23 O          64.9216   92.0177   15.7489 O.3     1  UNL1       -0.4751
     24 C          66.2791   92.6397   15.6063 C.3     1  UNL1        0.2103
     25 C          67.0201   92.5332   14.3065 C.3     1  UNL1        0.0724
     26 C          67.6552   91.2569   14.7732 C.3     1  UNL1        0.0093
     27 C          66.3850   93.8094   13.8398 C.3     1  UNL1        0.0093
     28 C          67.7611   92.4266   13.0067 C.2     1  UNL1        0.0532
     29 O          69.0685   91.6936   12.9465 O.co2   1  UNL1       -0.5491
     30 O          67.1948   93.0531   11.7670 O.co2   1  UNL1       -0.5491
@<TRIPOS>UNITY_ATOM_ATTR
29 1
charge -1
@<TRIPOS>BOND
     1    20    21    1
     2    21    22    1
     3    21    17    1
     4    17    18    1
     5    17    19    1
     6    11    17    1
     7    11     1    1
     8     1     2   ar
     9     2     3   ar
    10     3     4   ar
    11     4     5   ar
    12     5     6   ar
    13     6    23    1
    14    23    24    1
    15    24    25    1
    16    25    26    1
    17    25    27    1
    18    25    28    1
    19    28    29   ar
    20    28    30   ar
    21     6     7   ar
    22     7     8   ar
    23     8     9   ar
    24     9    10   ar
    25    11    12    1
    26    12    13   ar
    27    13    14   ar
    28    14    15   ar
    29    15    16   ar
    30    10     1   ar
    31    16    12   ar
    32     9     4   ar
@<TRIPOS>MOLECULE
*****
 30 32 0 0 0
SMALL
GASTEIGER

@<TRIPOS>ATOM
      1 C          62.6867   84.8200   11.1783 C.ar    1  UNL1       -0.0005
      2 C          63.0536   84.4901    9.7617 C.ar    1  UNL1       -0.0024
      3 C          62.4016   85.2243    8.6278 C.ar    1  UNL1       -0.0002
      4 C          61.3827   86.2883    8.9104 C.ar    1  UNL1        0.0030
      5 C          60.7307   87.0225    7.7764 C.ar    1  UNL1        0.0369
      6 C          59.7119   88.0865    8.0590 C.ar    1  UNL1        0.1386
      7 C          59.3451   88.4164    9.4756 C.ar    1  UNL1        0.0369
      8 C          59.9971   87.6822   10.6095 C.ar    1  UNL1        0.0031
      9 C          61.0159   86.6182   10.3269 C.ar    1  UNL1       -0.0001
     10 C          61.6679   85.8840   11.4609 C.ar    1  UNL1       -0.0024
     11 C          63.3387   84.0858   12.3123 C.3     1  UNL1        0.1227
     12 N          64.1177   84.8429   13.3467 N.ar    1  UNL1       -0.3045
     13 C          65.3324   84.3469   14.0735 C.ar    1  UNL1        0.0983
     14 C          65.7842   85.4265   15.0119 C.ar    1  UNL1        0.1193
     15 N          64.8485   86.5897   14.8650 N.ar    1  UNL1       -0.2223
     16 C          63.8186   86.2290   13.8359 C.ar    1  UNL1        0.1788
     17 C          63.2118   82.5945   12.4119 C.3     1  UNL1        0.0685
     18 C          62.2035   82.7537   13.5109 C.3     1  UNL1        0.0183
     19 C          64.2200   82.4353   11.3128 C.3     1  UNL1        0.0183
     20 C          63.0077   80.2722   11.2650 C.3     1  UNL1        0.0897
     21 N          63.0848   81.1031   12.5114 N.3     1  UNL1       -0.2707
     22 C          63.0350   80.4429   13.8573 C.3     1  UNL1        0.0897
     23 O          59.0599   88.8207    6.9251 O.3     1  UNL1       -0.4751
     24 C          59.8673   89.7555    6.0739 C.3     1  UNL1        0.2103
     25 C          59.1886   90.8650    5.3267 C.3     1  UNL1        0.0724
     26 C          60.5113   91.2969    4.7665 C.3     1  UNL1        0.0093
     27 C          57.8659   90.4330    5.8869 C.3     1  UNL1        0.0093
     28 C          58.5099   91.9745    4.5796 C.2     1  UNL1        0.0532
     29 O          59.2715   92.7670    3.5589 O.co2   1  UNL1       -0.5491
     30 O          57.0695   92.2914    4.8531 O.co2   1  UNL1       -0.5491
@<TRIPOS>UNITY_ATOM_ATTR
29 1
charge -1
@<TRIPOS>BOND
     1    20    21    1
     2    21    22    1
     3    21    17    1
     4    17    18    1
     5    17    19    1
     6    11    17    1
     7    11     1    1
     8     1     2   ar
     9     2     3   ar
    10     3     4   ar
    11     4     5   ar
    12     5     6   ar
    13     6    23    1
    14    23    24    1
    15    24    25    1
    16    25    26    1
    17    25    27    1
    18    25    28    1
    19    28    29   ar
    20    28    30   ar
    21     6     7   ar
    22     7     8   ar
    23     8     9   ar
    24     9    10   ar
    25    11    12    1
    26    12    13   ar
    27    13    14   ar
    28    14    15   ar
    29    15    16   ar
    30    10     1   ar
    31    16    12   ar
    32     9     4   ar
@<TRIPOS>MOLECULE
*****
 30 32 0 0 0
SMALL
GASTEIGER

@<TRIPOS>ATOM
      1 C          62.3944   84.9584   11.9168 C.ar    1  UNL1       -0.0005
      2 C          62.8510   84.3999   10.6017 C.ar    1  UNL1       -0.0024
      3 C          62.3559   85.0003    9.3194 C.ar    1  UNL1       -0.0002
      4 C          61.4041   86.1592    9.3521 C.ar    1  UNL1        0.0030
      5 C          60.9090   86.7595    8.0697 C.ar    1  UNL1        0.0369
      6 C          59.9572   87.9184    8.1025 C.ar    1  UNL1        0.1386
      7 C          59.5005   88.4769    9.4177 C.ar    1  UNL1        0.0369
      8 C          59.9957   87.8766   10.7000 C.ar    1  UNL1        0.0031
      9 C          60.9475   86.7177   10.6672 C.ar    1  UNL1       -0.0001
     10 C          61.4426   86.1173   11.9495 C.ar    1  UNL1       -0.0024
     11 C          62.8895   84.3581   13.1992 C.3     1  UNL1        0.1227
     12 N          63.0558   82.8719   13.3165 N.ar    1  UNL1       -0.3045
     13 C          62.0852   81.8353   12.8334 C.ar    1  UNL1        0.0983
     14 C          62.6514   80.4842   13.1558 C.ar    1  UNL1        0.1193
     15 N          63.9719   80.6858   13.8382 N.ar    1  UNL1       -0.2223
     16 C          64.2218   82.1615   13.9374 C.ar    1  UNL1        0.1788
     17 C          63.2183   85.2438   14.3642 C.3     1  UNL1        0.0685
     18 C          62.1170   84.6072   15.1590 C.3     1  UNL1        0.0183
     19 C          64.3196   85.8804   13.5693 C.3     1  UNL1        0.0183
     20 C          64.2665   87.4268   15.3055 C.3     1  UNL1        0.0897
     21 N          63.5472   86.1296   15.5292 N.3     1  UNL1       -0.2707
     22 C          63.1567   85.7183   16.9178 C.3     1  UNL1        0.0897
     23 O          59.4621   88.5188    6.8202 O.3     1  UNL1       -0.4751
     24 C          60.0027   89.8372    6.3513 C.3     1  UNL1        0.2103
     25 C          59.1432   90.7503    5.5284 C.3     1  UNL1        0.0724
     26 C          57.9179   90.1951    6.1920 C.3     1  UNL1        0.0093
     27 C          60.3684   91.3056    4.8648 C.3     1  UNL1        0.0093
     28 C          58.2837   91.6635    4.7055 C.2     1  UNL1        0.0532
     29 O          56.8070   91.7346    4.9596 O.co2   1  UNL1       -0.5491
     30 O          58.9007   92.5056    3.6284 O.co2   1  UNL1       -0.5491
@<TRIPOS>UNITY_ATOM_ATTR
29 1
charge -1
@<TRIPOS>BOND
     1    20    21    1
     2    21    22    1
     3    21    17    1
     4    17    18    1
     5    17    19    1
     6    11    17    1
     7    11     1    1
     8     1     2   ar
     9     2     3   ar
    10     3     4   ar
    11     4     5   ar
    12     5     6   ar
    13     6    23    1
    14    23    24    1
    15    24    25    1
    16    25    26    1
    17    25    27    1
    18    25    28    1
    19    28    29   ar
    20    28    30   ar
    21     6     7   ar
    22     7     8   ar
    23     8     9   ar
    24     9    10   ar
    25    11    12    1
    26    12    13   ar
    27    13    14   ar
    28    14    15   ar
    29    15    16   ar
    30    10     1   ar
    31    16    12   ar
    32     9     4   ar
@<TRIPOS>MOLECULE
*****
 30 32 0 0 0
SMALL
GASTEIGER

@<TRIPOS>ATOM
      1 C          61.4799   93.0640    1.9998 C.ar    1  UNL1       -0.0005
      2 C          62.5719   92.2270    2.5970 C.ar    1  UNL1       -0.0024
      3 C          62.2771   91.3302    3.7627 C.ar    1  UNL1       -0.0002
      4 C          60.8902   91.2705    4.3311 C.ar    1  UNL1        0.0030
      5 C          60.5954   90.3736    5.4968 C.ar    1  UNL1        0.0369
      6 C          59.2085   90.3139    6.0652 C.ar    1  UNL1        0.1386
      7 C          58.1165   91.1510    5.4678 C.ar    1  UNL1        0.0369
      8 C          58.4113   92.0478    4.3022 C.ar    1  UNL1        0.0031
      9 C          59.7982   92.1075    3.7338 C.ar    1  UNL1       -0.0001
     10 C          60.0930   93.0043    2.5681 C.ar    1  UNL1       -0.0024
     11 C          61.7747   93.9609    0.8340 C.3     1  UNL1        0.1227
     12 N          63.0916   94.6742    0.7508 N.ar    1  UNL1       -0.3045
     13 C          63.5953   95.7105    1.7111 C.ar    1  UNL1        0.0983
     14 C          64.9511   96.1532    1.2464 C.ar    1  UNL1        0.1193
     15 N          65.2853   95.3904   -0.0011 N.ar    1  UNL1       -0.2223
     16 C          64.1362   94.4763   -0.3074 C.ar    1  UNL1        0.1788
     17 C          60.7526   94.1444   -0.2483 C.3     1  UNL1        0.0685
     18 C          61.0086   92.7462   -0.7272 C.3     1  UNL1        0.0183
     19 C          60.4966   95.5427    0.2305 C.3     1  UNL1        0.0183
     20 C          60.0705   93.9813   -2.7500 C.3     1  UNL1        0.0897
     21 N          59.7304   94.3280   -1.3308 N.3     1  UNL1       -0.2707
     22 C          58.3684   94.8582   -0.9939 C.3     1  UNL1        0.0897
     23 O          58.9137   89.4171    7.2308 O.3     1  UNL1       -0.4751
     24 C          59.7359   88.1825    7.4541 C.3     1  UNL1        0.2103
     25 C          60.1008   87.7664    8.8482 C.3     1  UNL1        0.0724
     26 C          60.1433   89.2061    9.2668 C.3     1  UNL1        0.0093
     27 C          60.0583   86.3266    8.4297 C.3     1  UNL1        0.0093
     28 C          60.4657   87.3503   10.2424 C.2     1  UNL1        0.0532
     29 O          61.1445   86.0336   10.4787 O.co2   1  UNL1       -0.5491
     30 O          60.1519   88.2508   11.4002 O.co2   1  UNL1       -0.5491
@<TRIPOS>UNITY_ATOM_ATTR
29 1
charge -1
@<TRIPOS>BOND
     1    20    21    1
     2    21    22    1
     3    21    17    1
     4    17    18    1
     5    17    19    1
     6    11    17    1
     7    11     1    1
     8     1     2   ar
     9     2     3   ar
    10     3     4   ar
    11     4     5   ar
    12     5     6   ar
    13     6    23    1
    14    23    24    1
    15    24    25    1
    16    25    26    1
    17    25    27    1
    18    25    28    1
    19    28    29   ar
    20    28    30   ar
    21     6     7   ar
    22     7     8   ar
    23     8     9   ar
    24     9    10   ar
    25    11    12    1
    26    12    13   ar
    27    13    14   ar
    28    14    15   ar
    29    15    16   ar
    30    10     1   ar
    31    16    12   ar
    32     9     4   ar
@<TRIPOS>MOLECULE
*****
 30 32 0 0 0
SMALL
GASTEIGER

@<TRIPOS>ATOM
      1 C          61.5143   93.0933    1.9021 C.ar    1  UNL1       -0.0005
      2 C          62.6040   92.2750    2.5289 C.ar    1  UNL1       -0.0024
      3 C          62.3014   91.4033    3.7115 C.ar    1  UNL1       -0.0002
      4 C          60.9092   91.3500    4.2673 C.ar    1  UNL1        0.0030
      5 C          60.6066   90.4783    5.4500 C.ar    1  UNL1        0.0369
      6 C          59.2144   90.4250    6.0057 C.ar    1  UNL1        0.1386
      7 C          58.1247   91.2434    5.3788 C.ar    1  UNL1        0.0369
      8 C          58.4273   92.1150    4.1962 C.ar    1  UNL1        0.0031
      9 C          59.8195   92.1683    3.6404 C.ar    1  UNL1       -0.0001
     10 C          60.1221   93.0400    2.4578 C.ar    1  UNL1       -0.0024
     11 C          61.8169   93.9650    0.7194 C.3     1  UNL1        0.1227
     12 N          60.8522   94.0349   -0.4271 N.ar    1  UNL1       -0.3045
     13 C          60.2732   92.8642   -1.1648 C.ar    1  UNL1        0.0983
     14 C          59.3603   93.3934   -2.2309 C.ar    1  UNL1        0.1193
     15 N          59.3752   94.8913   -2.1521 N.ar    1  UNL1       -0.2223
     16 C          60.2972   95.2877   -1.0374 C.ar    1  UNL1        0.1788
     17 C          63.0841   94.7668    0.6833 C.3     1  UNL1        0.0685
     18 C          63.6735   93.7914   -0.2919 C.3     1  UNL1        0.0183
     19 C          62.4947   95.7422    1.6585 C.3     1  UNL1        0.0183
     20 C          64.8865   96.1826    1.9069 C.3     1  UNL1        0.0897
     21 N          64.3513   95.5687    0.6472 N.3     1  UNL1       -0.2707
     22 C          65.0833   95.7566   -0.6484 C.3     1  UNL1        0.0897
     23 O          58.9118   89.5533    7.1883 O.3     1  UNL1       -0.4751
     24 C          59.3508   88.1190    7.1948 C.3     1  UNL1        0.2103
     25 C          60.0965   87.5682    8.3739 C.3     1  UNL1        0.0724
     26 C          60.1887   88.9461    8.9593 C.3     1  UNL1        0.0093
     27 C          60.0043   86.1902    7.7886 C.3     1  UNL1        0.0093
     28 C          60.8422   87.0173    9.5531 C.2     1  UNL1        0.0532
     29 O          60.4200   87.3834   10.9452 O.co2   1  UNL1       -0.5491
     30 O          62.0101   86.1005    9.3403 O.co2   1  UNL1       -0.5491
@<TRIPOS>UNITY_ATOM_ATTR
29 1
charge -1
@<TRIPOS>BOND
     1    20    21    1
     2    21    22    1
     3    21    17    1
     4    17    18    1
     5    17    19    1
     6    11    17    1
     7    11     1    1
     8     1     2   ar
     9     2     3   ar
    10     3     4   ar
    11     4     5   ar
    12     5     6   ar
    13     6    23    1
    14    23    24    1
    15    24    25    1
    16    25    26    1
    17    25    27    1
    18    25    28    1
    19    28    29   ar
    20    28    30   ar
    21     6     7   ar
    22     7     8   ar
    23     8     9   ar
    24     9    10   ar
    25    11    12    1
    26    12    13   ar
    27    13    14   ar
    28    14    15   ar
    29    15    16   ar
    30    10     1   ar
    31    16    12   ar
    32     9     4   ar
