@<TRIPOS>MOLECULE
*****
 40 44 0 0 0
SMALL
GASTEIGER

@<TRIPOS>ATOM
      1 C          62.4503   86.2190   10.9984 C.ar    1  UNL1        0.1389
      2 C          63.2040   86.8109   12.1523 C.ar    1  UNL1        0.0396
      3 C          63.3230   88.3003   12.2854 C.ar    1  UNL1        0.0343
      4 C          64.0768   88.8922   13.4394 C.ar    1  UNL1        0.0557
      5 C          64.1958   90.3816   13.5725 C.ar    1  UNL1        0.0856
      6 C          63.5611   91.2789   12.5517 C.ar    1  UNL1        0.1045
      7 N          62.8074   90.6870   11.3979 N.ar    1  UNL1       -0.2436
      8 C          62.6883   89.1976   11.2647 C.ar    1  UNL1        0.0827
      9 C          61.9346   88.6056   10.1109 C.ar    1  UNL1        0.0223
     10 C          61.8156   87.1163    9.9777 C.ar    1  UNL1        0.0394
     11 C          61.0618   86.5243    8.8238 C.ar    1  UNL1        0.0526
     12 C          61.6204   85.5894    7.7924 C.ar    1  UNL1        0.1007
     13 C          63.0308   85.0822    7.7337 C.3     1  UNL1        0.0557
     14 N          60.5210   85.2507    6.8299 N.ar    1  UNL1       -0.0817
     15 O          59.2828   85.9763    7.2665 O.2     1  UNL1       -0.3581
     16 C          59.6171   86.7634    8.4988 C.ar    1  UNL1        0.1545
     17 C          58.6725   87.6364    9.2705 C.3     1  UNL1        0.0754
     18 C          64.9496   90.9735   14.7264 C.2     1  UNL1        0.2455
     19 N          66.4480   91.0334   14.6919 N.am    1  UNL1       -0.3252
     20 O          64.2049   91.5058   15.9148 O.2     1  UNL1       -0.2703
     21 H          66.9367   90.6841   13.9119 H       1  UNL1        0.1453
     22 H          66.9427   91.4219   15.4492 H       1  UNL1        0.1453
     23 C          63.5459   83.9046   10.5588 C.3     1  UNL1        0.2525
     24 O          62.3313   84.7296   10.8653 O.3     1  UNL1       -0.4714
     25 N          64.7115   87.9949   14.4601 N.pl3   1  UNL1       -0.3122
     26 H          65.6614   87.7497   14.3773 H       1  UNL1        0.1522
     27 C          63.8990   87.4710   15.6070 C.ar    1  UNL1        0.0527
     28 C          63.1810   88.4249   16.5149 C.ar    1  UNL1        0.0148
     29 C          62.3684   87.9011   17.6618 C.ar    1  UNL1        0.0013
     30 C          62.2739   86.4233   17.9007 C.ar    1  UNL1        0.0002
     31 C          62.9920   85.4693   16.9928 C.ar    1  UNL1        0.0058
     32 C          63.8045   85.9931   15.8459 C.ar    1  UNL1        0.0670
     33 C          64.5225   85.0392   14.9379 C.2     1  UNL1        0.2502
     34 O          65.9252   85.3356   14.4967 O.2     1  UNL1       -0.2699
     35 N          63.8378   83.7889   14.4712 N.am    1  UNL1       -0.2760
     36 C          62.4352   83.4925   14.9123 C.3     1  UNL1        0.0937
     37 C          61.7505   82.2421   14.4455 C.3     1  UNL1        0.0216
     38 C          62.4685   81.2882   13.5376 C.3     1  UNL1        0.0035
     39 C          63.8712   81.5846   13.0964 C.3     1  UNL1        0.0216
     40 C          64.5559   82.8349   13.5632 C.3     1  UNL1        0.0937
@<TRIPOS>BOND
     1    23    24    1
     2    24     1    1
     3     1     2   ar
     4     2     3   ar
     5     3     4   ar
     6     4    25    1
     7    25    27    1
     8    27    28   ar
     9    28    29   ar
    10    29    30   ar
    11    30    31   ar
    12    31    32   ar
    13    32    33    1
    14    33    34    2
    15    33    35   am
    16    35    36    1
    17    36    37    1
    18    37    38    1
    19    38    39    1
    20    39    40    1
    21     4     5   ar
    22     5    18    1
    23    18    19   am
    24    18    20    2
    25     5     6   ar
    26     6     7   ar
    27     7     8   ar
    28     8     9   ar
    29     9    10   ar
    30    10    11    1
    31    11    12   ar
    32    12    13    1
    33    12    14   ar
    34    14    15   ar
    35    15    16   ar
    36    16    17    1
    37    10     1   ar
    38    16    11   ar
    39     8     3   ar
    40    32    27   ar
    41    40    35    1
    42    25    26    1
    43    19    21    1
    44    19    22    1
@<TRIPOS>MOLECULE
*****
 40 44 0 0 0
SMALL
GASTEIGER

@<TRIPOS>ATOM
      1 C          64.0944   89.1197   13.5866 C.ar    1  UNL1        0.1389
      2 C          63.1789   88.3211   12.7069 C.ar    1  UNL1        0.0396
      3 C          62.3774   89.0063   11.6401 C.ar    1  UNL1        0.0343
      4 C          61.4618   88.2076   10.7603 C.ar    1  UNL1        0.0557
      5 C          60.6603   88.8929    9.6935 C.ar    1  UNL1        0.0856
      6 C          60.7745   90.3768    9.5064 C.ar    1  UNL1        0.1045
      7 N          61.6900   91.1755   10.3861 N.ar    1  UNL1       -0.2436
      8 C          62.4915   90.4902   11.4529 C.ar    1  UNL1        0.0827
      9 C          63.4071   91.2888   12.3326 C.ar    1  UNL1        0.0223
     10 C          64.2085   90.6036   13.3995 C.ar    1  UNL1        0.0394
     11 C          65.1241   91.4023   14.2792 C.ar    1  UNL1        0.0526
     12 C          66.3983   92.0683   13.8517 C.ar    1  UNL1        0.1007
     13 C          66.9807   92.0527   12.4695 C.3     1  UNL1        0.0557
     14 N          66.9879   92.7528   15.0491 N.ar    1  UNL1       -0.0817
     15 O          66.0781   92.5097   16.2167 O.2     1  UNL1       -0.3581
     16 C          64.9262   91.6751   15.7408 C.ar    1  UNL1        0.1545
     17 C          63.7780   91.1971   16.5794 C.3     1  UNL1        0.0754
     18 C          59.7448   88.0943    8.8138 C.2     1  UNL1        0.2455
     19 N          59.5221   88.5095    7.3897 N.am    1  UNL1       -0.3252
     20 O          59.0518   86.8804    9.3582 O.2     1  UNL1       -0.2703
     21 H          59.9769   89.3062    7.0325 H       1  UNL1        0.1453
     22 H          58.9212   87.9853    6.8124 H       1  UNL1        0.1453
     23 C          64.5955   87.0112   15.0194 C.3     1  UNL1        0.2525
     24 O          64.8959   88.4344   14.6534 O.3     1  UNL1       -0.4714
     25 N          61.3477   86.7238   10.9475 N.pl3   1  UNL1       -0.3122
     26 H          60.7170   86.3581   11.6091 H       1  UNL1        0.1522
     27 C          62.1945   85.7970   10.1265 C.ar    1  UNL1        0.0527
     28 C          62.4289   86.0846    8.6732 C.ar    1  UNL1        0.0148
     29 C          63.2757   85.1578    7.8522 C.ar    1  UNL1        0.0013
     30 C          63.8882   83.9434    8.4846 C.ar    1  UNL1        0.0002
     31 C          63.6539   83.6557    9.9381 C.ar    1  UNL1        0.0058
     32 C          62.8071   84.5825   10.7590 C.ar    1  UNL1        0.0670
     33 C          62.5727   84.2949   12.2124 C.2     1  UNL1        0.2502
     34 O          62.3953   85.4259   13.1817 O.2     1  UNL1       -0.2699
     35 N          62.5159   82.8763   12.6965 N.am    1  UNL1       -0.2760
     36 C          62.6933   81.7454   11.7272 C.3     1  UNL1        0.0937
     37 C          62.6365   80.3268   12.2114 C.3     1  UNL1        0.0216
     38 C          62.4021   80.0392   13.6648 C.3     1  UNL1        0.0035
     39 C          62.2247   81.1701   14.6341 C.3     1  UNL1        0.0216
     40 C          62.2815   82.5887   14.1499 C.3     1  UNL1        0.0937
@<TRIPOS>BOND
     1    23    24    1
     2    24     1    1
     3     1     2   ar
     4     2     3   ar
     5     3     4   ar
     6     4    25    1
     7    25    27    1
     8    27    28   ar
     9    28    29   ar
    10    29    30   ar
    11    30    31   ar
    12    31    32   ar
    13    32    33    1
    14    33    34    2
    15    33    35   am
    16    35    36    1
    17    36    37    1
    18    37    38    1
    19    38    39    1
    20    39    40    1
    21     4     5   ar
    22     5    18    1
    23    18    19   am
    24    18    20    2
    25     5     6   ar
    26     6     7   ar
    27     7     8   ar
    28     8     9   ar
    29     9    10   ar
    30    10    11    1
    31    11    12   ar
    32    12    13    1
    33    12    14   ar
    34    14    15   ar
    35    15    16   ar
    36    16    17    1
    37    10     1   ar
    38    16    11   ar
    39     8     3   ar
    40    32    27   ar
    41    40    35    1
    42    25    26    1
    43    19    21    1
    44    19    22    1
@<TRIPOS>MOLECULE
*****
 40 44 0 0 0
SMALL
GASTEIGER

@<TRIPOS>ATOM
      1 C          63.7115   84.3191   13.0286 C.ar    1  UNL1        0.1389
      2 C          63.7879   85.8146   12.9413 C.ar    1  UNL1        0.0396
      3 C          62.8908   86.5575   11.9962 C.ar    1  UNL1        0.0343
      4 C          62.9672   88.0530   11.9090 C.ar    1  UNL1        0.0557
      5 C          62.0701   88.7959   10.9638 C.ar    1  UNL1        0.0856
      6 C          61.0966   88.0433   10.1059 C.ar    1  UNL1        0.1045
      7 N          61.0202   86.5478   10.1932 N.ar    1  UNL1       -0.2436
      8 C          61.9173   85.8049   11.1383 C.ar    1  UNL1        0.0827
      9 C          61.8410   84.3094   11.2256 C.ar    1  UNL1        0.0223
     10 C          62.7381   83.5665   12.1708 C.ar    1  UNL1        0.0394
     11 C          62.6617   82.0710   12.2580 C.ar    1  UNL1        0.0526
     12 C          62.0735   81.2827   13.3906 C.ar    1  UNL1        0.1007
     13 C          61.4585   81.8516   14.6348 C.3     1  UNL1        0.0557
     14 N          62.2084   79.8257   13.0606 N.ar    1  UNL1       -0.0817
     15 O          62.8799   79.7135   11.7239 O.2     1  UNL1       -0.3581
     16 C          63.1601   81.1011   11.2280 C.ar    1  UNL1        0.1545
     17 C          63.8223   81.4565    9.9299 C.3     1  UNL1        0.0754
     18 C          62.1464   90.2914   10.8765 C.2     1  UNL1        0.2455
     19 N          61.0625   91.1343   11.4804 N.am    1  UNL1       -0.3252
     20 O          63.3068   90.9441   10.1853 O.2     1  UNL1       -0.2703
     21 H          60.3009   90.7059   11.9340 H       1  UNL1        0.1453
     22 H          61.1126   92.1158   11.4231 H       1  UNL1        0.1453
     23 C          64.3779   83.6654   15.4532 C.3     1  UNL1        0.2525
     24 O          64.6086   83.5762   13.9738 O.3     1  UNL1       -0.4714
     25 N          63.9406   88.8056   12.7668 N.pl3   1  UNL1       -0.3122
     26 H          64.7418   89.2108   12.3629 H       1  UNL1        0.1522
     27 C          63.6934   88.9408   14.2401 C.ar    1  UNL1        0.0527
     28 C          63.2200   87.7587   15.0328 C.ar    1  UNL1        0.0148
     29 C          62.9727   87.8940   16.5061 C.ar    1  UNL1        0.0013
     30 C          63.1990   89.2113   17.1867 C.ar    1  UNL1        0.0002
     31 C          63.6725   90.3935   16.3940 C.ar    1  UNL1        0.0058
     32 C          63.9197   90.2583   14.9207 C.ar    1  UNL1        0.0670
     33 C          64.3932   91.4404   14.1281 C.2     1  UNL1        0.2502
     34 O          63.6370   91.8772   12.9084 O.2     1  UNL1       -0.2699
     35 N          65.6228   92.1858   14.5551 N.am    1  UNL1       -0.2760
     36 C          66.3790   91.7491   15.7747 C.3     1  UNL1        0.0937
     37 C          67.6087   92.4946   16.2016 C.3     1  UNL1        0.0216
     38 C          68.0821   93.6767   15.4090 C.3     1  UNL1        0.0035
     39 C          67.3260   94.1134   14.1894 C.3     1  UNL1        0.0216
     40 C          66.0963   93.3680   13.7624 C.3     1  UNL1        0.0937
@<TRIPOS>BOND
     1    23    24    1
     2    24     1    1
     3     1     2   ar
     4     2     3   ar
     5     3     4   ar
     6     4    25    1
     7    25    27    1
     8    27    28   ar
     9    28    29   ar
    10    29    30   ar
    11    30    31   ar
    12    31    32   ar
    13    32    33    1
    14    33    34    2
    15    33    35   am
    16    35    36    1
    17    36    37    1
    18    37    38    1
    19    38    39    1
    20    39    40    1
    21     4     5   ar
    22     5    18    1
    23    18    19   am
    24    18    20    2
    25     5     6   ar
    26     6     7   ar
    27     7     8   ar
    28     8     9   ar
    29     9    10   ar
    30    10    11    1
    31    11    12   ar
    32    12    13    1
    33    12    14   ar
    34    14    15   ar
    35    15    16   ar
    36    16    17    1
    37    10     1   ar
    38    16    11   ar
    39     8     3   ar
    40    32    27   ar
    41    40    35    1
    42    25    26    1
    43    19    21    1
    44    19    22    1
