@<TRIPOS>MOLECULE
*****
 29 33 0 0 0
SMALL
GASTEIGER

@<TRIPOS>ATOM
      1 C          61.9945   89.3506   10.5718 C.ar    1  UNL1        0.2014
      2 N          61.3945   90.0545    9.3910 N.ar    1  UNL1       -0.2136
      3 C          60.4861   89.0895    8.6884 C.ar    1  UNL1        0.0999
      4 C          59.6288   89.2269    7.4652 C.ar    1  UNL1        0.0207
      5 C          58.8101   88.0639    6.9887 C.ar    1  UNL1        0.0016
      6 C          58.8488   86.7635    7.7353 C.ar    1  UNL1        0.0016
      7 C          59.7061   86.6261    8.9585 C.ar    1  UNL1        0.0188
      8 C          60.5247   87.7891    9.4350 C.ar    1  UNL1        0.0801
      9 N          61.4570   87.9505   10.5990 N.ar    1  UNL1       -0.2954
     10 C          64.8975   91.1271   13.5158 C.3     1  UNL1        0.1086
     11 C          64.2220   89.8233   13.8221 C.3     1  UNL1        0.0459
     12 C          63.2544   89.2311   12.8408 C.3     1  UNL1        0.0955
     13 N          62.9622   89.9427   11.5531 N.pl3   1  UNL1       -0.2794
     14 C          63.6376   91.2465   11.2468 C.3     1  UNL1        0.0955
     15 C          64.6052   91.8387   12.2281 C.3     1  UNL1        0.0459
     16 C          69.3779   92.7046   15.8220 C.3     1  UNL1        0.0343
     17 C          67.9245   92.4443   15.5572 C.ar    1  UNL1        0.0177
     18 C          66.7838   92.8167   16.4573 C.ar    1  UNL1        0.1174
     19 N          65.5111   92.3685   15.8021 N.ar    1  UNL1       -0.1681
     20 N          65.8651   91.7192   14.4971 N.ar    1  UNL1       -0.2516
     21 C          67.3567   91.7661   14.3457 C.ar    1  UNL1        0.0923
     22 C          61.7927   86.8967   11.6123 C.3     1  UNL1        0.1354
     23 C          62.4958   85.6424   11.1853 C.ar    1  UNL1        0.0006
     24 C          62.9300   84.6391   12.2124 C.ar    1  UNL1       -0.0001
     25 C          63.6331   83.3848   11.7855 C.ar    1  UNL1        0.0294
     26 C          63.9021   83.1337   10.3312 C.ar    1  UNL1        0.1401
     27 F          64.6052   81.8794    9.9043 F       1  UNL1       -0.2042
     28 C          63.4679   84.1370    9.3041 C.ar    1  UNL1        0.0294
     29 C          62.7648   85.3913    9.7311 C.ar    1  UNL1       -0.0001
@<TRIPOS>BOND
     1    16    17    1
     2    17    18   ar
     3    18    19   ar
     4    19    20   ar
     5    20    10    1
     6    10    11    1
     7    11    12    1
     8    12    13    1
     9    13     1    1
    10     1     2   ar
    11     2     3   ar
    12     3     4   ar
    13     4     5   ar
    14     5     6   ar
    15     6     7   ar
    16     7     8   ar
    17     8     9   ar
    18     9    22    1
    19    22    23    1
    20    23    24   ar
    21    24    25   ar
    22    25    26   ar
    23    26    27    1
    24    26    28   ar
    25    28    29   ar
    26    13    14    1
    27    14    15    1
    28    20    21   ar
    29    21    17   ar
    30    15    10    1
    31     9     1   ar
    32    29    23   ar
    33     8     3   ar
@<TRIPOS>MOLECULE
*****
 29 33 0 0 0
SMALL
GASTEIGER

@<TRIPOS>ATOM
      1 C          65.0968   91.3729   13.0733 C.ar    1  UNL1        0.2014
      2 N          64.9278   91.5637   14.5515 N.ar    1  UNL1       -0.2136
      3 C          66.1944   92.1606   15.0896 C.ar    1  UNL1        0.0999
      4 C          66.6039   92.5650   16.4748 C.ar    1  UNL1        0.0207
      5 C          67.9653   93.1475   16.7143 C.ar    1  UNL1        0.0016
      6 C          68.9170   93.3256   15.5687 C.ar    1  UNL1        0.0016
      7 C          68.5075   92.9212   14.1836 C.ar    1  UNL1        0.0188
      8 C          67.1461   92.3387   13.9440 C.ar    1  UNL1        0.0801
      9 N          66.4678   91.8519   12.6979 N.ar    1  UNL1       -0.2954
     10 C          62.0294   89.6636   10.2592 C.3     1  UNL1        0.1086
     11 C          62.4650   88.8783   11.4606 C.3     1  UNL1        0.0459
     12 C          63.4875   89.4481   12.3986 C.3     1  UNL1        0.0955
     13 N          64.0743   90.8031   12.1353 N.pl3   1  UNL1       -0.2794
     14 C          63.6386   91.5884   10.9339 C.3     1  UNL1        0.0955
     15 C          62.6161   91.0187    9.9958 C.3     1  UNL1        0.0459
     16 C          58.7926   86.2885    7.8071 C.3     1  UNL1        0.0343
     17 C          59.5191   87.5425    8.1940 C.ar    1  UNL1        0.0177
     18 C          59.3478   88.8916    7.5613 C.ar    1  UNL1        0.1174
     19 N          60.2673   89.8504    8.2579 N.ar    1  UNL1       -0.1681
     20 N          61.0069   89.0938    9.3212 N.ar    1  UNL1       -0.2516
     21 C          60.5445   87.6675    9.2817 C.ar    1  UNL1        0.0923
     22 C          67.0570   91.8452   11.3185 C.3     1  UNL1        0.1354
     23 C          67.0465   93.0970   10.4923 C.ar    1  UNL1        0.0006
     24 C          67.8598   93.1722    9.2341 C.ar    1  UNL1       -0.0001
     25 C          67.8493   94.4241    8.4079 C.ar    1  UNL1        0.0294
     26 C          67.0254   95.6008    8.8398 C.ar    1  UNL1        0.1401
     27 F          67.0149   96.8527    8.0135 F       1  UNL1       -0.2042
     28 C          66.2121   95.5257   10.0979 C.ar    1  UNL1        0.0294
     29 C          66.2226   94.2738   10.9241 C.ar    1  UNL1       -0.0001
@<TRIPOS>BOND
     1    16    17    1
     2    17    18   ar
     3    18    19   ar
     4    19    20   ar
     5    20    10    1
     6    10    11    1
     7    11    12    1
     8    12    13    1
     9    13     1    1
    10     1     2   ar
    11     2     3   ar
    12     3     4   ar
    13     4     5   ar
    14     5     6   ar
    15     6     7   ar
    16     7     8   ar
    17     8     9   ar
    18     9    22    1
    19    22    23    1
    20    23    24   ar
    21    24    25   ar
    22    25    26   ar
    23    26    27    1
    24    26    28   ar
    25    28    29   ar
    26    13    14    1
    27    14    15    1
    28    20    21   ar
    29    21    17   ar
    30    15    10    1
    31     9     1   ar
    32    29    23   ar
    33     8     3   ar
@<TRIPOS>MOLECULE
*****
 29 33 0 0 0
SMALL
GASTEIGER

@<TRIPOS>ATOM
      1 C          63.4821   84.1457   12.9700 C.ar    1  UNL1        0.2014
      2 N          63.1382   82.9716   13.8378 N.ar    1  UNL1       -0.2136
      3 C          62.9747   81.7723   12.9517 C.ar    1  UNL1        0.0999
      4 C          62.6361   80.3421   13.2509 C.ar    1  UNL1        0.0207
      5 C          62.5403   79.3447   12.1346 C.ar    1  UNL1        0.0016
      6 C          62.7833   79.7777   10.7192 C.ar    1  UNL1        0.0016
      7 C          63.1219   81.2080   10.4200 C.ar    1  UNL1        0.0188
      8 C          63.2176   82.2053   11.5363 C.ar    1  UNL1        0.0801
      9 N          63.5312   83.6721   11.5476 N.ar    1  UNL1       -0.2954
     10 C          64.2346   88.3506   14.3853 C.3     1  UNL1        0.1086
     11 C          63.5352   88.1125   13.0799 C.3     1  UNL1        0.0459
     12 C          63.2844   86.7109   12.6081 C.3     1  UNL1        0.0955
     13 N          63.7330   85.5473   13.4418 N.pl3   1  UNL1       -0.2794
     14 C          64.4323   85.7855   14.7472 C.3     1  UNL1        0.0955
     15 C          64.6831   87.1871   15.2190 C.3     1  UNL1        0.0459
     16 C          66.3696   93.1435   14.9776 C.3     1  UNL1        0.0343
     17 C          65.4667   91.9553   15.1294 C.ar    1  UNL1        0.0177
     18 C          64.2759   91.8629   16.0368 C.ar    1  UNL1        0.1174
     19 N          63.6694   90.5014   15.8685 N.ar    1  UNL1       -0.1681
     20 N          64.4854   89.7522   14.8571 N.ar    1  UNL1       -0.2516
     21 C          65.5961   90.6508   14.4003 C.ar    1  UNL1        0.0923
     22 C          63.8398   84.5170   10.3472 C.3     1  UNL1        0.1354
     23 C          62.7238   85.0525    9.5000 C.ar    1  UNL1        0.0006
     24 C          61.5967   85.8110   10.1362 C.ar    1  UNL1       -0.0001
     25 C          60.4807   86.3465    9.2891 C.ar    1  UNL1        0.0294
     26 C          60.4917   86.1237    7.8057 C.ar    1  UNL1        0.1401
     27 F          59.3757   86.6592    6.9586 F       1  UNL1       -0.2042
     28 C          61.6187   85.3653    7.1696 C.ar    1  UNL1        0.0294
     29 C          62.7347   84.8297    8.0167 C.ar    1  UNL1       -0.0001
@<TRIPOS>BOND
     1    16    17    1
     2    17    18   ar
     3    18    19   ar
     4    19    20   ar
     5    20    10    1
     6    10    11    1
     7    11    12    1
     8    12    13    1
     9    13     1    1
    10     1     2   ar
    11     2     3   ar
    12     3     4   ar
    13     4     5   ar
    14     5     6   ar
    15     6     7   ar
    16     7     8   ar
    17     8     9   ar
    18     9    22    1
    19    22    23    1
    20    23    24   ar
    21    24    25   ar
    22    25    26   ar
    23    26    27    1
    24    26    28   ar
    25    28    29   ar
    26    13    14    1
    27    14    15    1
    28    20    21   ar
    29    21    17   ar
    30    15    10    1
    31     9     1   ar
    32    29    23   ar
    33     8     3   ar
@<TRIPOS>MOLECULE
*****
 29 33 0 0 0
SMALL
GASTEIGER

@<TRIPOS>ATOM
      1 C          64.9454   91.2631   12.9551 C.ar    1  UNL1        0.2014
      2 N          66.2391   91.9205   12.5753 N.ar    1  UNL1       -0.2136
      3 C          66.9313   92.3449   13.8365 C.ar    1  UNL1        0.0999
      4 C          68.2381   93.0400   14.0790 C.ar    1  UNL1        0.0207
      5 C          68.6791   93.3401   15.4810 C.ar    1  UNL1        0.0016
      6 C          67.8133   92.9450   16.6404 C.ar    1  UNL1        0.0016
      7 C          66.5064   92.2498   16.3978 C.ar    1  UNL1        0.0188
      8 C          66.0654   91.9498   14.9959 C.ar    1  UNL1        0.0801
      9 N          64.8381   91.2812   14.4511 N.ar    1  UNL1       -0.2954
     10 C          61.9180   89.5393   10.1067 C.3     1  UNL1        0.1086
     11 C          62.3009   88.7815   11.3433 C.3     1  UNL1        0.0459
     12 C          63.3100   89.3561   12.2927 C.3     1  UNL1        0.0955
     13 N          63.9363   90.6885   12.0056 N.pl3   1  UNL1       -0.2794
     14 C          63.5534   91.4463   10.7691 C.3     1  UNL1        0.0955
     15 C          62.5443   90.8717    9.8196 C.3     1  UNL1        0.0459
     16 C          58.8654   86.1181    7.4880 C.3     1  UNL1        0.0343
     17 C          59.5057   87.3922    7.9535 C.ar    1  UNL1        0.0177
     18 C          59.2061   88.7689    7.4388 C.ar    1  UNL1        0.1174
     19 N          60.0733   89.7407    8.1828 N.ar    1  UNL1       -0.1681
     20 N          60.9089   88.9647    9.1573 N.ar    1  UNL1       -0.2516
     21 C          60.5581   87.5132    9.0156 C.ar    1  UNL1        0.0923
     22 C          63.7028   90.7279   15.2604 C.3     1  UNL1        0.1354
     23 C          63.6751   89.2709   15.6156 C.ar    1  UNL1        0.0006
     24 C          62.9553   88.8133   16.8496 C.ar    1  UNL1       -0.0001
     25 C          62.9275   87.3562   17.2049 C.ar    1  UNL1        0.0294
     26 C          63.6197   86.3568   16.3262 C.ar    1  UNL1        0.1401
     27 F          63.5920   84.8997   16.6815 F       1  UNL1       -0.2042
     28 C          64.3395   86.8143   15.0924 C.ar    1  UNL1        0.0294
     29 C          64.3673   88.2714   14.7371 C.ar    1  UNL1       -0.0001
@<TRIPOS>BOND
     1    16    17    1
     2    17    18   ar
     3    18    19   ar
     4    19    20   ar
     5    20    10    1
     6    10    11    1
     7    11    12    1
     8    12    13    1
     9    13     1    1
    10     1     2   ar
    11     2     3   ar
    12     3     4   ar
    13     4     5   ar
    14     5     6   ar
    15     6     7   ar
    16     7     8   ar
    17     8     9   ar
    18     9    22    1
    19    22    23    1
    20    23    24   ar
    21    24    25   ar
    22    25    26   ar
    23    26    27    1
    24    26    28   ar
    25    28    29   ar
    26    13    14    1
    27    14    15    1
    28    20    21   ar
    29    21    17   ar
    30    15    10    1
    31     9     1   ar
    32    29    23   ar
    33     8     3   ar
@<TRIPOS>MOLECULE
*****
 29 33 0 0 0
SMALL
GASTEIGER

@<TRIPOS>ATOM
      1 C          62.1210   88.6751   10.7188 C.ar    1  UNL1        0.2014
      2 N          60.9167   89.2614   10.0437 N.ar    1  UNL1       -0.2136
      3 C          60.3329   88.2126    9.1442 C.ar    1  UNL1        0.0999
      4 C          59.1422   88.2223    8.2320 C.ar    1  UNL1        0.0207
      5 C          58.7951   86.9973    7.4389 C.ar    1  UNL1        0.0016
      6 C          59.6387   85.7627    7.5580 C.ar    1  UNL1        0.0016
      7 C          60.8293   85.7531    8.4702 C.ar    1  UNL1        0.0188
      8 C          61.1765   86.9780    9.2633 C.ar    1  UNL1        0.0801
      9 N          62.2815   87.2639   10.2365 N.ar    1  UNL1       -0.2954
     10 C          64.7846   90.7801   13.6725 C.3     1  UNL1        0.1086
     11 C          64.3915   91.4642   12.3968 C.3     1  UNL1        0.0459
     12 C          63.5036   90.7625   11.4123 C.3     1  UNL1        0.0955
     13 N          63.0089   89.3768   11.7034 N.pl3   1  UNL1       -0.2794
     14 C          63.4020   88.6926   12.9790 C.3     1  UNL1        0.0955
     15 C          64.2899   89.3943   13.9636 C.3     1  UNL1        0.0459
     16 C          69.0594   92.7594   16.0578 C.3     1  UNL1        0.0343
     17 C          67.6374   92.3916   15.7535 C.ar    1  UNL1        0.0177
     18 C          66.4402   92.7315   16.5908 C.ar    1  UNL1        0.1174
     19 N          65.2258   92.1692   15.9132 N.ar    1  UNL1       -0.1681
     20 N          65.6725   91.4818   14.6571 N.ar    1  UNL1       -0.2516
     21 C          67.1629   91.6192   14.5583 C.ar    1  UNL1        0.0923
     22 C          63.3582   86.3065   10.6540 C.3     1  UNL1        0.1354
     23 C          63.0342   85.1695   11.5770 C.ar    1  UNL1        0.0006
     24 C          62.7411   83.8090   11.0171 C.ar    1  UNL1       -0.0001
     25 C          62.4171   82.6719   11.9401 C.ar    1  UNL1        0.0294
     26 C          62.3860   82.8952   13.4231 C.ar    1  UNL1        0.1401
     27 F          62.0620   81.7581   14.3461 F       1  UNL1       -0.2042
     28 C          62.6790   84.2556   13.9830 C.ar    1  UNL1        0.0294
     29 C          63.0031   85.3927   13.0600 C.ar    1  UNL1       -0.0001
@<TRIPOS>BOND
     1    16    17    1
     2    17    18   ar
     3    18    19   ar
     4    19    20   ar
     5    20    10    1
     6    10    11    1
     7    11    12    1
     8    12    13    1
     9    13     1    1
    10     1     2   ar
    11     2     3   ar
    12     3     4   ar
    13     4     5   ar
    14     5     6   ar
    15     6     7   ar
    16     7     8   ar
    17     8     9   ar
    18     9    22    1
    19    22    23    1
    20    23    24   ar
    21    24    25   ar
    22    25    26   ar
    23    26    27    1
    24    26    28   ar
    25    28    29   ar
    26    13    14    1
    27    14    15    1
    28    20    21   ar
    29    21    17   ar
    30    15    10    1
    31     9     1   ar
    32    29    23   ar
    33     8     3   ar
@<TRIPOS>MOLECULE
*****
 29 33 0 0 0
SMALL
GASTEIGER

@<TRIPOS>ATOM
      1 C          63.2373   85.5983   13.5065 C.ar    1  UNL1        0.2014
      2 N          62.7695   84.8020   14.6885 N.ar    1  UNL1       -0.2136
      3 C          62.3916   83.4332   14.2052 C.ar    1  UNL1        0.0999
      4 C          61.8645   82.2258   14.9222 C.ar    1  UNL1        0.0207
      5 C          61.5715   80.9685   14.1583 C.ar    1  UNL1        0.0016
      6 C          61.8057   80.9188   12.6776 C.ar    1  UNL1        0.0016
      7 C          62.3328   82.1263   11.9606 C.ar    1  UNL1        0.0188
      8 C          62.6257   83.3835   12.7244 C.ar    1  UNL1        0.0801
      9 N          63.1484   84.7216   12.2926 N.ar    1  UNL1       -0.2954
     10 C          64.6577   89.8674   13.5876 C.3     1  UNL1        0.1086
     11 C          65.0839   88.9146   14.6649 C.3     1  UNL1        0.0459
     12 C          64.6104   87.4915   14.6378 C.3     1  UNL1        0.0955
     13 N          63.7107   87.0213   13.5335 N.pl3   1  UNL1       -0.2794
     14 C          63.2845   87.9742   12.4563 C.3     1  UNL1        0.0955
     15 C          63.7580   89.3972   12.4834 C.3     1  UNL1        0.0459
     16 C          66.2269   94.6680   12.0470 C.3     1  UNL1        0.0343
     17 C          65.8525   93.4971   12.9066 C.ar    1  UNL1        0.0177
     18 C          65.8671   93.4637   14.4061 C.ar    1  UNL1        0.1174
     19 N          65.4213   92.1000   14.8438 N.ar    1  UNL1       -0.1681
     20 N          65.1311   91.2905   13.6147 N.ar    1  UNL1       -0.2516
     21 C          65.3976   92.1540   12.4175 C.ar    1  UNL1        0.0923
     22 C          63.5174   85.1140   10.8927 C.3     1  UNL1        0.1354
     23 C          62.4477   85.5054    9.9168 C.ar    1  UNL1        0.0006
     24 C          61.2223   86.2257   10.3961 C.ar    1  UNL1       -0.0001
     25 C          60.1525   86.6172    9.4203 C.ar    1  UNL1        0.0294
     26 C          60.3081   86.2884    7.9650 C.ar    1  UNL1        0.1401
     27 F          59.2384   86.6799    6.9892 F       1  UNL1       -0.2042
     28 C          61.5335   85.5682    7.4857 C.ar    1  UNL1        0.0294
     29 C          62.6032   85.1767    8.4615 C.ar    1  UNL1       -0.0001
@<TRIPOS>BOND
     1    16    17    1
     2    17    18   ar
     3    18    19   ar
     4    19    20   ar
     5    20    10    1
     6    10    11    1
     7    11    12    1
     8    12    13    1
     9    13     1    1
    10     1     2   ar
    11     2     3   ar
    12     3     4   ar
    13     4     5   ar
    14     5     6   ar
    15     6     7   ar
    16     7     8   ar
    17     8     9   ar
    18     9    22    1
    19    22    23    1
    20    23    24   ar
    21    24    25   ar
    22    25    26   ar
    23    26    27    1
    24    26    28   ar
    25    28    29   ar
    26    13    14    1
    27    14    15    1
    28    20    21   ar
    29    21    17   ar
    30    15    10    1
    31     9     1   ar
    32    29    23   ar
    33     8     3   ar
