@<TRIPOS>MOLECULE
*****
 32 34 0 0 0
SMALL
GASTEIGER

@<TRIPOS>ATOM
      1 C          63.5275   85.5321   12.8944 C.ar    1  UNL1       -0.0004
      2 C          64.2467   85.4805   14.2097 C.ar    1  UNL1       -0.0024
      3 C          64.6220   86.7529   14.9097 C.ar    1  UNL1       -0.0002
      4 C          64.2781   88.0770   14.2944 C.ar    1  UNL1        0.0030
      5 C          64.6534   89.3495   14.9945 C.ar    1  UNL1        0.0369
      6 C          64.3095   90.6735   14.3792 C.ar    1  UNL1        0.1386
      7 C          63.5903   90.7251   13.0638 C.ar    1  UNL1        0.0369
      8 C          63.2150   89.4527   12.3638 C.ar    1  UNL1        0.0031
      9 C          63.5589   88.1286   12.9791 C.ar    1  UNL1       -0.0001
     10 C          63.1836   86.8562   12.2791 C.ar    1  UNL1       -0.0024
     11 C          63.1522   84.2597   12.1943 C.3     1  UNL1        0.1240
     12 N          62.6059   83.1045   12.9799 N.ar    1  UNL1       -0.3045
     13 C          62.3641   81.7191   12.4581 C.ar    1  UNL1        0.0983
     14 C          61.8143   80.8903   13.5809 C.ar    1  UNL1        0.1193
     15 N          61.7162   81.7634   14.7966 N.ar    1  UNL1       -0.2223
     16 C          62.2055   83.1318   14.4252 C.ar    1  UNL1        0.1788
     17 C          63.3231   84.1424   10.7087 C.3     1  UNL1        0.0827
     18 C          64.2678   83.1252   10.1404 C.3     1  UNL1        0.0197
     19 N          62.5495   85.0424    9.7914 N.3     1  UNL1       -0.2708
     20 C          63.0520   85.3099    8.4036 C.3     1  UNL1        0.0897
     21 C          61.2733   85.6749   10.2618 C.3     1  UNL1        0.0722
     22 C          60.6062   86.7280    9.4275 C.3     1  UNL1        0.0173
     23 C          60.6215   89.3198    9.6073 C.3     1  UNL1        0.0000
     24 C          60.1072   87.9886   10.0693 C.3     1  UNL1        0.0014
     25 O          64.6848   91.9459   15.0792 O.3     1  UNL1       -0.4751
     26 C          65.6869   92.8750   14.4604 C.3     1  UNL1        0.2103
     27 C          67.1531   92.6570   14.6896 C.3     1  UNL1        0.0724
     28 C          66.9541   92.8658   16.1616 C.3     1  UNL1        0.0093
     29 C          67.3522   92.4482   13.2176 C.3     1  UNL1        0.0093
     30 C          68.6194   92.4390   14.9188 C.2     1  UNL1        0.0532
     31 O          69.1762   92.4868   16.3108 O.co2   1  UNL1       -0.5491
     32 O          69.5289   92.1734   13.7559 O.co2   1  UNL1       -0.5491
@<TRIPOS>UNITY_ATOM_ATTR
31 1
charge -1
@<TRIPOS>BOND
     1    23    24    1
     2    24    22    1
     3    22    21    1
     4    21    19    1
     5    19    20    1
     6    19    17    1
     7    17    18    1
     8    17    11    1
     9    11     1    1
    10     1     2   ar
    11     2     3   ar
    12     3     4   ar
    13     4     5   ar
    14     5     6   ar
    15     6    25    1
    16    25    26    1
    17    26    27    1
    18    27    28    1
    19    27    29    1
    20    27    30    1
    21    30    31   ar
    22    30    32   ar
    23     6     7   ar
    24     7     8   ar
    25     8     9   ar
    26     9    10   ar
    27    11    12    1
    28    12    13   ar
    29    13    14   ar
    30    14    15   ar
    31    15    16   ar
    32    10     1   ar
    33    16    12   ar
    34     9     4   ar
@<TRIPOS>MOLECULE
*****
 32 34 0 0 0
SMALL
GASTEIGER

@<TRIPOS>ATOM
      1 C          62.7959   85.6296   12.0835 C.ar    1  UNL1       -0.0004
      2 C          63.0954   87.0527   12.4510 C.ar    1  UNL1       -0.0024
      3 C          62.5157   88.1743   11.6411 C.ar    1  UNL1       -0.0002
      4 C          61.6364   87.8728   10.4638 C.ar    1  UNL1        0.0030
      5 C          61.0567   88.9945    9.6540 C.ar    1  UNL1        0.0369
      6 C          60.1774   88.6930    8.4767 C.ar    1  UNL1        0.1386
      7 C          59.8779   87.2698    8.1093 C.ar    1  UNL1        0.0369
      8 C          60.4576   86.1482    8.9191 C.ar    1  UNL1        0.0031
      9 C          61.3369   86.4497   10.0964 C.ar    1  UNL1       -0.0001
     10 C          61.9166   85.3281   10.9062 C.ar    1  UNL1       -0.0024
     11 C          63.3757   84.5080   12.8934 C.3     1  UNL1        0.1240
     12 N          63.2769   83.0958   12.3973 N.ar    1  UNL1       -0.3045
     13 C          62.6465   81.9469   13.1272 C.ar    1  UNL1        0.0983
     14 C          62.7712   80.7257   12.2653 C.ar    1  UNL1        0.1193
     15 N          63.4787   81.1197   11.0027 N.ar    1  UNL1       -0.2223
     16 C          63.7912   82.5845   11.0843 C.ar    1  UNL1        0.1788
     17 C          64.0541   84.7985   14.1992 C.3     1  UNL1        0.0827
     18 C          65.5515   84.7815   14.2866 C.3     1  UNL1        0.0197
     19 N          63.2352   85.1060   15.4178 N.3     1  UNL1       -0.2708
     20 C          61.8931   84.4617   15.6017 C.3     1  UNL1        0.0897
     21 C          63.7584   86.0577   16.4524 C.3     1  UNL1        0.0722
     22 C          62.8302   87.0362   17.1090 C.3     1  UNL1        0.0173
     23 C          63.6957   89.0260   15.6802 C.3     1  UNL1        0.0000
     24 C          63.0443   88.5099   16.9289 C.3     1  UNL1        0.0014
     25 O          59.5977   89.8145    7.6668 O.3     1  UNL1       -0.4751
     26 C          59.6438   89.7596    6.1685 C.3     1  UNL1        0.2103
     27 C          58.9761   90.8305    5.3578 C.3     1  UNL1        0.0724
     28 C          57.6397   90.3918    5.8790 C.3     1  UNL1        0.0093
     29 C          60.3124   91.2692    4.8366 C.3     1  UNL1        0.0093
     30 C          58.3084   91.9014    4.5471 C.2     1  UNL1        0.0532
     31 O          56.8569   92.2113    4.7643 O.co2   1  UNL1       -0.5491
     32 O          59.0921   92.6624    3.5191 O.co2   1  UNL1       -0.5491
@<TRIPOS>UNITY_ATOM_ATTR
31 1
charge -1
@<TRIPOS>BOND
     1    23    24    1
     2    24    22    1
     3    22    21    1
     4    21    19    1
     5    19    20    1
     6    19    17    1
     7    17    18    1
     8    17    11    1
     9    11     1    1
    10     1     2   ar
    11     2     3   ar
    12     3     4   ar
    13     4     5   ar
    14     5     6   ar
    15     6    25    1
    16    25    26    1
    17    26    27    1
    18    27    28    1
    19    27    29    1
    20    27    30    1
    21    30    31   ar
    22    30    32   ar
    23     6     7   ar
    24     7     8   ar
    25     8     9   ar
    26     9    10   ar
    27    11    12    1
    28    12    13   ar
    29    13    14   ar
    30    14    15   ar
    31    15    16   ar
    32    10     1   ar
    33    16    12   ar
    34     9     4   ar
@<TRIPOS>MOLECULE
*****
 32 34 0 0 0
SMALL
GASTEIGER

@<TRIPOS>ATOM
      1 C          62.4250   88.2294   10.4566 C.ar    1  UNL1       -0.0004
      2 C          62.4286   89.6590   10.0025 C.ar    1  UNL1       -0.0024
      3 C          62.9288   90.7358   10.9191 C.ar    1  UNL1       -0.0002
      4 C          63.4254   90.3830   12.2899 C.ar    1  UNL1        0.0030
      5 C          63.9257   91.4599   13.2065 C.ar    1  UNL1        0.0369
      6 C          64.4223   91.1071   14.5772 C.ar    1  UNL1        0.1386
      7 C          64.4187   89.6774   15.0313 C.ar    1  UNL1        0.0369
      8 C          63.9185   88.6006   14.1147 C.ar    1  UNL1        0.0031
      9 C          63.4218   88.9534   12.7440 C.ar    1  UNL1       -0.0001
     10 C          62.9216   87.8766   11.8274 C.ar    1  UNL1       -0.0024
     11 C          61.9247   87.1525    9.5400 C.3     1  UNL1        0.1240
     12 N          60.6669   87.3641    8.7506 N.ar    1  UNL1       -0.3045
     13 C          60.1003   88.6887    8.3329 C.ar    1  UNL1        0.0983
     14 C          58.8381   88.4314    7.5645 C.ar    1  UNL1        0.1193
     15 N          58.6245   86.9478    7.5072 N.ar    1  UNL1       -0.2223
     16 C          59.7547   86.2882    8.2403 C.ar    1  UNL1        0.1788
     17 C          62.6822   85.8642    9.4128 C.3     1  UNL1        0.0827
     18 C          63.3984   85.5382    8.1357 C.3     1  UNL1        0.0197
     19 N          62.7237   84.9018   10.5626 N.3     1  UNL1       -0.2708
     20 C          61.8423   85.1213   11.7565 C.3     1  UNL1        0.0897
     21 C          63.6463   83.7200   10.5187 C.3     1  UNL1        0.0722
     22 C          63.7647   82.8161   11.7099 C.3     1  UNL1        0.0173
     23 C          62.3306   81.1147   13.0512 C.3     1  UNL1        0.0000
     24 C          62.9752   81.5419   11.7658 C.3     1  UNL1        0.0014
     25 O          64.9226   92.1839   15.4939 O.3     1  UNL1       -0.4751
     26 C          66.3167   92.7147   15.3368 C.3     1  UNL1        0.2103
     27 C          67.0446   92.5380   14.0372 C.3     1  UNL1        0.0724
     28 C          66.4380   93.8104   13.5245 C.3     1  UNL1        0.0093
     29 C          67.6512   91.2656   14.5499 C.3     1  UNL1        0.0093
     30 C          67.7724   92.3613   12.7376 C.2     1  UNL1        0.0532
     31 O          69.0925   91.6495   12.7080 O.co2   1  UNL1       -0.5491
     32 O          67.1802   92.8962   11.4675 O.co2   1  UNL1       -0.5491
@<TRIPOS>UNITY_ATOM_ATTR
31 1
charge -1
@<TRIPOS>BOND
     1    23    24    1
     2    24    22    1
     3    22    21    1
     4    21    19    1
     5    19    20    1
     6    19    17    1
     7    17    18    1
     8    17    11    1
     9    11     1    1
    10     1     2   ar
    11     2     3   ar
    12     3     4   ar
    13     4     5   ar
    14     5     6   ar
    15     6    25    1
    16    25    26    1
    17    26    27    1
    18    27    28    1
    19    27    29    1
    20    27    30    1
    21    30    31   ar
    22    30    32   ar
    23     6     7   ar
    24     7     8   ar
    25     8     9   ar
    26     9    10   ar
    27    11    12    1
    28    12    13   ar
    29    13    14   ar
    30    14    15   ar
    31    15    16   ar
    32    10     1   ar
    33    16    12   ar
    34     9     4   ar
@<TRIPOS>MOLECULE
*****
 32 34 0 0 0
SMALL
GASTEIGER

@<TRIPOS>ATOM
      1 C          62.7612   84.8236   11.7610 C.ar    1  UNL1       -0.0004
      2 C          63.1707   84.3447   10.3998 C.ar    1  UNL1       -0.0024
      3 C          62.5838   84.9789    9.1737 C.ar    1  UNL1       -0.0002
      4 C          61.5874   86.0920    9.3088 C.ar    1  UNL1        0.0030
      5 C          61.0005   86.7262    8.0827 C.ar    1  UNL1        0.0369
      6 C          60.0041   87.8392    8.2178 C.ar    1  UNL1        0.1386
      7 C          59.5946   88.3181    9.5791 C.ar    1  UNL1        0.0369
      8 C          60.1815   87.6839   10.8052 C.ar    1  UNL1        0.0031
      9 C          61.1779   86.5709   10.6700 C.ar    1  UNL1       -0.0001
     10 C          61.7648   85.9367   11.8961 C.ar    1  UNL1       -0.0024
     11 C          63.3481   84.1894   12.9872 C.3     1  UNL1        0.1240
     12 N          62.9509   82.7957   13.3739 N.ar    1  UNL1       -0.3045
     13 C          63.4200   81.5310   12.7178 C.ar    1  UNL1        0.0983
     14 C          62.7738   80.3755   13.4231 C.ar    1  UNL1        0.1193
     15 N          61.9053   80.9261   14.5152 N.ar    1  UNL1       -0.2223
     16 C          62.0147   82.4218   14.4847 C.ar    1  UNL1        0.1788
     17 C          64.3322   84.9490   13.8265 C.3     1  UNL1        0.0827
     18 C          65.7549   84.4828   13.9208 C.3     1  UNL1        0.0197
     19 N          63.8938   86.1748   14.5716 N.3     1  UNL1       -0.2708
     20 C          63.4090   86.0592   15.9864 C.3     1  UNL1        0.0897
     21 C          63.9401   87.5162   13.9019 C.3     1  UNL1        0.0722
     22 C          64.4928   88.7021   14.6356 C.3     1  UNL1        0.0173
     23 C          63.1054   89.5657   16.6553 C.3     1  UNL1        0.0000
     24 C          63.5617   89.7144   15.2342 C.3     1  UNL1        0.0014
     25 O          59.4172   88.4734    6.9917 O.3     1  UNL1       -0.4751
     26 C          59.9768   89.7655    6.4746 C.3     1  UNL1        0.2103
     27 C          59.1265   90.6657    5.6281 C.3     1  UNL1        0.0724
     28 C          60.3617   91.2549    5.0140 C.3     1  UNL1        0.0093
     29 C          57.8914   90.0765    6.2422 C.3     1  UNL1        0.0093
     30 C          58.2762   91.5659    4.7816 C.2     1  UNL1        0.0532
     31 O          56.7935   91.6223    5.0019 O.co2   1  UNL1       -0.5491
     32 O          58.9085   92.4098    3.7148 O.co2   1  UNL1       -0.5491
@<TRIPOS>UNITY_ATOM_ATTR
31 1
charge -1
@<TRIPOS>BOND
     1    23    24    1
     2    24    22    1
     3    22    21    1
     4    21    19    1
     5    19    20    1
     6    19    17    1
     7    17    18    1
     8    17    11    1
     9    11     1    1
    10     1     2   ar
    11     2     3   ar
    12     3     4   ar
    13     4     5   ar
    14     5     6   ar
    15     6    25    1
    16    25    26    1
    17    26    27    1
    18    27    28    1
    19    27    29    1
    20    27    30    1
    21    30    31   ar
    22    30    32   ar
    23     6     7   ar
    24     7     8   ar
    25     8     9   ar
    26     9    10   ar
    27    11    12    1
    28    12    13   ar
    29    13    14   ar
    30    14    15   ar
    31    15    16   ar
    32    10     1   ar
    33    16    12   ar
    34     9     4   ar
@<TRIPOS>MOLECULE
*****
 32 34 0 0 0
SMALL
GASTEIGER

@<TRIPOS>ATOM
      1 C          62.6002   87.5358   10.8353 C.ar    1  UNL1       -0.0004
      2 C          62.5061   88.8866   10.1900 C.ar    1  UNL1       -0.0024
      3 C          62.9097   90.1125   10.9542 C.ar    1  UNL1       -0.0002
      4 C          63.4076   89.9877   12.3637 C.ar    1  UNL1        0.0030
      5 C          63.8112   91.2137   13.1279 C.ar    1  UNL1        0.0369
      6 C          64.3091   91.0889   14.5374 C.ar    1  UNL1        0.1386
      7 C          64.4032   89.7380   15.1826 C.ar    1  UNL1        0.0369
      8 C          63.9996   88.5120   14.4184 C.ar    1  UNL1        0.0031
      9 C          63.5017   88.6369   13.0090 C.ar    1  UNL1       -0.0001
     10 C          63.0981   87.4109   12.2448 C.ar    1  UNL1       -0.0024
     11 C          62.1966   86.3097   10.0711 C.3     1  UNL1        0.1240
     12 N          62.7307   84.9665   10.4718 N.ar    1  UNL1       -0.3045
     13 C          63.7263   84.1487    9.7037 C.ar    1  UNL1        0.0983
     14 C          63.9740   82.8820   10.4681 C.ar    1  UNL1        0.1193
     15 N          63.1314   82.9170   11.7086 N.ar    1  UNL1       -0.2223
     16 C          62.3631   84.2053   11.7109 C.ar    1  UNL1        0.1788
     17 C          61.2588   86.4269    8.9063 C.3     1  UNL1        0.0827
     18 C          61.5083   85.6310    7.6595 C.3     1  UNL1        0.0197
     19 N          60.0715   87.3399    8.9882 N.3     1  UNL1       -0.2708
     20 C          59.5582   87.7846   10.3258 C.3     1  UNL1        0.0897
     21 C          59.3974   87.8081    7.7327 C.3     1  UNL1        0.0722
     22 C          59.4247   89.2619    7.3642 C.3     1  UNL1        0.0173
     23 C          59.1037   91.1408    5.5988 C.3     1  UNL1        0.0000
     24 C          59.1320   89.6840    5.9548 C.3     1  UNL1        0.0014
     25 O          64.7128   92.3148   15.3016 O.3     1  UNL1       -0.4751
     26 C          66.1594   92.5632   15.6111 C.3     1  UNL1        0.2103
     27 C          67.1916   92.4263   14.5315 C.3     1  UNL1        0.0724
     28 C          66.5858   93.5901   13.8046 C.3     1  UNL1        0.0093
     29 C          67.7974   91.2624   15.2583 C.3     1  UNL1        0.0093
     30 C          68.2238   92.2893   13.4518 C.2     1  UNL1        0.0532
     31 O          67.8016   92.2295   12.0137 O.co2   1  UNL1       -0.5491
     32 O          69.6783   92.2121   13.8102 O.co2   1  UNL1       -0.5491
@<TRIPOS>UNITY_ATOM_ATTR
31 1
charge -1
@<TRIPOS>BOND
     1    23    24    1
     2    24    22    1
     3    22    21    1
     4    21    19    1
     5    19    20    1
     6    19    17    1
     7    17    18    1
     8    17    11    1
     9    11     1    1
    10     1     2   ar
    11     2     3   ar
    12     3     4   ar
    13     4     5   ar
    14     5     6   ar
    15     6    25    1
    16    25    26    1
    17    26    27    1
    18    27    28    1
    19    27    29    1
    20    27    30    1
    21    30    31   ar
    22    30    32   ar
    23     6     7   ar
    24     7     8   ar
    25     8     9   ar
    26     9    10   ar
    27    11    12    1
    28    12    13   ar
    29    13    14   ar
    30    14    15   ar
    31    15    16   ar
    32    10     1   ar
    33    16    12   ar
    34     9     4   ar
@<TRIPOS>MOLECULE
*****
 32 34 0 0 0
SMALL
GASTEIGER

@<TRIPOS>ATOM
      1 C          63.3154   86.5065   12.7423 C.ar    1  UNL1       -0.0004
      2 C          64.0170   86.3114   14.0536 C.ar    1  UNL1       -0.0024
      3 C          64.5352   87.4981   14.8107 C.ar    1  UNL1       -0.0002
      4 C          64.3518   88.8798   14.2565 C.ar    1  UNL1        0.0030
      5 C          64.8701   90.0665   15.0137 C.ar    1  UNL1        0.0369
      6 C          64.6867   91.4482   14.4595 C.ar    1  UNL1        0.1386
      7 C          63.9851   91.6433   13.1481 C.ar    1  UNL1        0.0369
      8 C          63.4668   90.4567   12.3910 C.ar    1  UNL1        0.0031
      9 C          63.6502   89.0749   12.9452 C.ar    1  UNL1       -0.0001
     10 C          63.1320   87.8883   12.1881 C.ar    1  UNL1       -0.0024
     11 C          62.7971   85.3199   11.9851 C.3     1  UNL1        0.1240
     12 N          62.2478   85.4953   10.6004 N.ar    1  UNL1       -0.3045
     13 C          62.9540   85.1538    9.3218 C.ar    1  UNL1        0.0983
     14 C          62.0384   85.4905    8.1823 C.ar    1  UNL1        0.1193
     15 N          60.7664   86.0401    8.7566 N.ar    1  UNL1       -0.2223
     16 C          60.8958   86.0431   10.2510 C.ar    1  UNL1        0.1788
     17 C          62.8282   83.9578   12.6126 C.3     1  UNL1        0.0827
     18 C          61.9743   83.6642   13.8104 C.3     1  UNL1        0.0197
     19 N          63.7131   82.8893   12.0424 N.3     1  UNL1       -0.2708
     20 C          64.5590   83.1797   10.8381 C.3     1  UNL1        0.0897
     21 C          63.7523   81.5305   12.6764 C.3     1  UNL1        0.0722
     22 C          62.5657   80.6189   12.5703 C.3     1  UNL1        0.0173
     23 C          60.4743   80.4916   14.1066 C.3     1  UNL1        0.0000
     24 C          61.8956   80.1124   13.8131 C.3     1  UNL1        0.0014
     25 O          65.2049   92.6349   15.2166 O.3     1  UNL1       -0.4751
     26 C          66.3997   93.3858   14.7078 C.3     1  UNL1        0.2103
     27 C          67.1179   92.9095   13.4801 C.3     1  UNL1        0.0724
     28 C          67.8912   91.9302   14.3124 C.3     1  UNL1        0.0093
     29 C          66.3445   93.8889   12.6478 C.3     1  UNL1        0.0093
     30 C          67.8361   92.4333   12.2524 C.2     1  UNL1        0.0532
     31 O          69.0192   91.5203   12.3823 O.co2   1  UNL1       -0.5491
     32 O          67.3712   92.8699   10.8947 O.co2   1  UNL1       -0.5491
@<TRIPOS>UNITY_ATOM_ATTR
31 1
charge -1
@<TRIPOS>BOND
     1    23    24    1
     2    24    22    1
     3    22    21    1
     4    21    19    1
     5    19    20    1
     6    19    17    1
     7    17    18    1
     8    17    11    1
     9    11     1    1
    10     1     2   ar
    11     2     3   ar
    12     3     4   ar
    13     4     5   ar
    14     5     6   ar
    15     6    25    1
    16    25    26    1
    17    26    27    1
    18    27    28    1
    19    27    29    1
    20    27    30    1
    21    30    31   ar
    22    30    32   ar
    23     6     7   ar
    24     7     8   ar
    25     8     9   ar
    26     9    10   ar
    27    11    12    1
    28    12    13   ar
    29    13    14   ar
    30    14    15   ar
    31    15    16   ar
    32    10     1   ar
    33    16    12   ar
    34     9     4   ar
@<TRIPOS>MOLECULE
*****
 32 34 0 0 0
SMALL
GASTEIGER

@<TRIPOS>ATOM
      1 C          63.1772   86.8471   12.5158 C.ar    1  UNL1       -0.0004
      2 C          62.6266   87.6724   11.3908 C.ar    1  UNL1       -0.0024
      3 C          62.8965   89.1470   11.3406 C.ar    1  UNL1       -0.0002
      4 C          63.7171   89.7963   12.4153 C.ar    1  UNL1        0.0030
      5 C          63.9870   91.2711   12.3650 C.ar    1  UNL1        0.0369
      6 C          64.8076   91.9204   13.4397 C.ar    1  UNL1        0.1386
      7 C          65.3583   91.0950   14.5647 C.ar    1  UNL1        0.0369
      8 C          65.0884   89.6204   14.6150 C.ar    1  UNL1        0.0031
      9 C          64.2678   88.9710   13.5403 C.ar    1  UNL1       -0.0001
     10 C          63.9978   87.4964   13.5905 C.ar    1  UNL1       -0.0024
     11 C          62.9073   85.3724   12.5661 C.3     1  UNL1        0.1240
     12 N          63.0530   84.6270   13.8596 N.ar    1  UNL1       -0.3045
     13 C          61.9879   84.4516   14.9010 C.ar    1  UNL1        0.0983
     14 C          62.5661   83.6423   16.0238 C.ar    1  UNL1        0.1193
     15 N          63.9886   83.3174   15.6763 N.ar    1  UNL1       -0.2223
     16 C          64.2896   83.9260   14.3388 C.ar    1  UNL1        0.1788
     17 C          62.4916   84.6432   11.3230 C.3     1  UNL1        0.0827
     18 C          61.5390   85.2865   10.3592 C.3     1  UNL1        0.0197
     19 N          63.0285   83.2707   11.0436 N.3     1  UNL1       -0.2708
     20 C          64.2321   83.1008   10.1646 C.3     1  UNL1        0.0897
     21 C          62.3618   82.0682   11.6430 C.3     1  UNL1        0.0722
     22 C          63.1347   81.1554   12.5482 C.3     1  UNL1        0.0173
     23 C          61.0744   80.8890   14.1085 C.3     1  UNL1        0.0000
     24 C          62.4361   80.4409   13.6670 C.3     1  UNL1        0.0014
     25 O          65.0776   93.3950   13.3895 O.3     1  UNL1       -0.4751
     26 C          66.4296   93.8963   12.9760 C.3     1  UNL1        0.2103
     27 C          66.6883   94.2622   11.5446 C.3     1  UNL1        0.0724
     28 C          66.2274   95.6629   11.8192 C.3     1  UNL1        0.0093
     29 C          67.1492   92.8614   11.2699 C.3     1  UNL1        0.0093
     30 C          66.9470   94.6280   10.1131 C.2     1  UNL1        0.0532
     31 O          68.1505   94.0802    9.4047 O.co2   1  UNL1       -0.5491
     32 O          66.0023   95.5415    9.3899 O.co2   1  UNL1       -0.5491
@<TRIPOS>UNITY_ATOM_ATTR
31 1
charge -1
@<TRIPOS>BOND
     1    23    24    1
     2    24    22    1
     3    22    21    1
     4    21    19    1
     5    19    20    1
     6    19    17    1
     7    17    18    1
     8    17    11    1
     9    11     1    1
    10     1     2   ar
    11     2     3   ar
    12     3     4   ar
    13     4     5   ar
    14     5     6   ar
    15     6    25    1
    16    25    26    1
    17    26    27    1
    18    27    28    1
    19    27    29    1
    20    27    30    1
    21    30    31   ar
    22    30    32   ar
    23     6     7   ar
    24     7     8   ar
    25     8     9   ar
    26     9    10   ar
    27    11    12    1
    28    12    13   ar
    29    13    14   ar
    30    14    15   ar
    31    15    16   ar
    32    10     1   ar
    33    16    12   ar
    34     9     4   ar
@<TRIPOS>MOLECULE
*****
 32 34 0 0 0
SMALL
GASTEIGER

@<TRIPOS>ATOM
      1 C          64.2319   88.3265   14.2773 C.ar    1  UNL1       -0.0004
      2 C          63.5226   88.7702   13.0323 C.ar    1  UNL1       -0.0024
      3 C          63.8308   90.1090   12.4302 C.ar    1  UNL1       -0.0002
      4 C          64.8485   91.0040   13.0730 C.ar    1  UNL1        0.0030
      5 C          65.1567   92.3429   12.4709 C.ar    1  UNL1        0.0369
      6 C          66.1744   93.2380   13.1137 C.ar    1  UNL1        0.1386
      7 C          66.8838   92.7942   14.3587 C.ar    1  UNL1        0.0369
      8 C          66.5755   91.4554   14.9608 C.ar    1  UNL1        0.0031
      9 C          65.5579   90.5603   14.3180 C.ar    1  UNL1       -0.0001
     10 C          65.2496   89.2216   14.9201 C.ar    1  UNL1       -0.0024
     11 C          63.9237   86.9876   14.8794 C.3     1  UNL1        0.1240
     12 N          63.3353   86.9022   16.2566 N.ar    1  UNL1       -0.3045
     13 C          63.1230   88.0510   17.1975 C.ar    1  UNL1        0.0983
     14 C          62.5125   87.5118   18.4571 C.ar    1  UNL1        0.1193
     15 N          62.3475   86.0298   18.2947 N.ar    1  UNL1       -0.2223
     16 C          62.8561   85.6531   16.9347 C.ar    1  UNL1        0.1788
     17 C          64.2037   85.7343   14.1045 C.3     1  UNL1        0.0827
     18 C          65.5782   85.1338   14.1207 C.3     1  UNL1        0.0197
     19 N          63.1093   85.0814   13.3132 N.3     1  UNL1       -0.2708
     20 C          62.5237   83.7800   13.7753 C.3     1  UNL1        0.0897
     21 C          62.6006   85.7298   12.0600 C.3     1  UNL1        0.0722
     22 C          62.6989   85.0079   10.7489 C.3     1  UNL1        0.0173
     23 C          62.9801   85.2694    8.1793 C.3     1  UNL1        0.0000
     24 C          62.3699   85.7234    9.4722 C.3     1  UNL1        0.0014
     25 O          66.4827   94.5768   12.5116 O.3     1  UNL1       -0.4751
     26 C          65.8223   94.9931   11.2306 C.3     1  UNL1        0.2103
     27 C          66.6533   95.2605   10.0109 C.3     1  UNL1        0.0724
     28 C          66.6862   93.7912    9.7111 C.3     1  UNL1        0.0093
     29 C          66.6204   96.7299   10.3106 C.3     1  UNL1        0.0093
     30 C          67.4843   95.5280    8.7911 C.2     1  UNL1        0.0532
     31 O          68.4042   94.4673    8.2629 O.co2   1  UNL1       -0.5491
     32 O          67.3954   96.8560    8.0994 O.co2   1  UNL1       -0.5491
@<TRIPOS>UNITY_ATOM_ATTR
31 1
charge -1
@<TRIPOS>BOND
     1    23    24    1
     2    24    22    1
     3    22    21    1
     4    21    19    1
     5    19    20    1
     6    19    17    1
     7    17    18    1
     8    17    11    1
     9    11     1    1
    10     1     2   ar
    11     2     3   ar
    12     3     4   ar
    13     4     5   ar
    14     5     6   ar
    15     6    25    1
    16    25    26    1
    17    26    27    1
    18    27    28    1
    19    27    29    1
    20    27    30    1
    21    30    31   ar
    22    30    32   ar
    23     6     7   ar
    24     7     8   ar
    25     8     9   ar
    26     9    10   ar
    27    11    12    1
    28    12    13   ar
    29    13    14   ar
    30    14    15   ar
    31    15    16   ar
    32    10     1   ar
    33    16    12   ar
    34     9     4   ar
@<TRIPOS>MOLECULE
*****
 32 34 0 0 0
SMALL
GASTEIGER

@<TRIPOS>ATOM
      1 C          61.3029   87.6370   10.2790 C.ar    1  UNL1       -0.0004
      2 C          61.1103   87.2101   11.7040 C.ar    1  UNL1       -0.0024
      3 C          61.7078   85.9224   12.1884 C.ar    1  UNL1       -0.0002
      4 C          62.4979   85.0615   11.2478 C.ar    1  UNL1        0.0030
      5 C          63.0954   83.7737   11.7322 C.ar    1  UNL1        0.0369
      6 C          63.8854   82.9128   10.7916 C.ar    1  UNL1        0.1386
      7 C          64.0780   83.3398    9.3666 C.ar    1  UNL1        0.0369
      8 C          63.4805   84.6275    8.8822 C.ar    1  UNL1        0.0031
      9 C          62.6905   85.4884    9.8228 C.ar    1  UNL1       -0.0001
     10 C          62.0930   86.7762    9.3384 C.ar    1  UNL1       -0.0024
     11 C          60.7055   88.9248    9.7945 C.3     1  UNL1        0.1240
     12 N          59.9916   88.9713    8.4761 N.ar    1  UNL1       -0.3045
     13 C          60.0729   90.0790    7.4679 C.ar    1  UNL1        0.0983
     14 C          59.2027   89.7104    6.3031 C.ar    1  UNL1        0.1193
     15 N          58.5836   88.3749    6.5912 N.ar    1  UNL1       -0.2223
     16 C          59.0712   87.9181    7.9342 C.ar    1  UNL1        0.1788
     17 C          60.8218   90.1662   10.6285 C.3     1  UNL1        0.0827
     18 C          59.5849   90.8789   11.0892 C.3     1  UNL1        0.0197
     19 N          62.1750   90.6948   11.0017 N.3     1  UNL1       -0.2708
     20 C          63.0108   91.4057    9.9788 C.3     1  UNL1        0.0897
     21 C          62.6925   90.5127   12.3978 C.3     1  UNL1        0.0722
     22 C          63.5406   89.3220   12.7339 C.3     1  UNL1        0.0173
     23 C          64.3812   87.7720   14.6421 C.3     1  UNL1        0.0000
     24 C          64.0669   89.1455   14.1275 C.3     1  UNL1        0.0014
     25 O          64.4829   81.6251   11.2760 O.3     1  UNL1       -0.4751
     26 C          64.4484   81.2849   12.7366 C.3     1  UNL1        0.2103
     27 C          63.2018   81.5287   13.5343 C.3     1  UNL1        0.0724
     28 C          63.9055   82.6063   14.3046 C.3     1  UNL1        0.0093
     29 C          62.4981   80.4511   12.7639 C.3     1  UNL1        0.0093
     30 C          61.9551   81.7726   14.3320 C.2     1  UNL1        0.0532
     31 O          60.8356   80.7748   14.2977 O.co2   1  UNL1       -0.5491
     32 O          61.8279   83.0142   15.1639 O.co2   1  UNL1       -0.5491
@<TRIPOS>UNITY_ATOM_ATTR
31 1
charge -1
@<TRIPOS>BOND
     1    23    24    1
     2    24    22    1
     3    22    21    1
     4    21    19    1
     5    19    20    1
     6    19    17    1
     7    17    18    1
     8    17    11    1
     9    11     1    1
    10     1     2   ar
    11     2     3   ar
    12     3     4   ar
    13     4     5   ar
    14     5     6   ar
    15     6    25    1
    16    25    26    1
    17    26    27    1
    18    27    28    1
    19    27    29    1
    20    27    30    1
    21    30    31   ar
    22    30    32   ar
    23     6     7   ar
    24     7     8   ar
    25     8     9   ar
    26     9    10   ar
    27    11    12    1
    28    12    13   ar
    29    13    14   ar
    30    14    15   ar
    31    15    16   ar
    32    10     1   ar
    33    16    12   ar
    34     9     4   ar
