@<TRIPOS>MOLECULE
*****
 37 40 0 0 0
SMALL
GASTEIGER

@<TRIPOS>ATOM
      1 C          61.7878   86.0163   10.5935 C.2     1  UNL1        0.0334
      2 C          60.5955   86.0975    9.6871 C.2     1  UNL1        0.0122
      3 C          59.9742   87.4283    9.3825 C.2     1  UNL1        0.0216
      4 C          60.5453   88.6780    9.9843 C.2     1  UNL1        0.1008
      5 N          60.1491   90.1201    9.8673 N.2     1  UNL1       -0.1483
      6 N          61.0967   90.9301   10.7015 N.2     1  UNL1       -0.1483
      7 C          62.0784   89.9887   11.3340 C.2     1  UNL1        0.1007
      8 C          61.7376   88.5969   10.8907 C.2     1  UNL1        0.0223
      9 C          62.3589   87.2660   11.1954 C.3     1  UNL1        0.0707
     10 N          64.0577   82.7764   10.2752 N.am    1  UNL1       -0.2686
     11 C          63.4363   84.1073    9.9705 C.2     1  UNL1        0.3079
     12 O          63.8421   84.8600    8.7381 O.2     1  UNL1       -0.2522
     13 N          62.4092   84.6855   10.8982 N.am    1  UNL1       -0.2714
     14 H          64.7318   82.3969    9.6662 H       1  UNL1        0.1564
     15 H          62.1428   84.1915   11.7071 H       1  UNL1        0.1561
     16 C          63.9148   82.6081   12.8639 C.ar    1  UNL1       -0.0090
     17 C          63.5089   81.8555   14.0963 C.ar    1  UNL1       -0.0031
     18 C          62.8402   80.5185   13.9724 C.ar    1  UNL1       -0.0006
     19 C          62.5773   79.9342   12.6161 C.ar    1  UNL1       -0.0031
     20 C          62.9831   80.6868   11.3837 C.ar    1  UNL1       -0.0090
     21 C          63.6518   82.0238   11.5076 C.ar    1  UNL1        0.0435
     22 C          64.1224   84.9207   14.0297 C.3     1  UNL1        0.0051
     23 C          64.5835   83.9450   12.9877 C.3     1  UNL1        0.0276
     24 C          62.7202   80.1026   10.0275 C.3     1  UNL1        0.0276
     25 C          62.7894   78.6180    9.8241 C.3     1  UNL1        0.0051
     26 C          63.2035   90.3719   12.2491 C.ar    1  UNL1        0.0205
     27 C          63.4938   89.5463   13.4673 C.ar    1  UNL1        0.0016
     28 C          64.6188   89.9294   14.3824 C.ar    1  UNL1        0.0014
     29 C          65.4536   91.1382   14.0794 C.ar    1  UNL1        0.0199
     30 C          65.1633   91.9639   12.8612 C.ar    1  UNL1        0.1217
     31 C          64.0383   91.5807   11.9461 C.ar    1  UNL1        0.0214
     32 S          65.9981   93.1728   12.5581 S.O2    1  UNL1        0.0572
     33 N          66.8329   94.3816   12.2551 N.3     1  UNL1       -0.2035
     34 O          66.0962   93.4726   14.0245 O.2     1  UNL1       -0.1532
     35 O          65.9000   92.8729   11.0917 O.2     1  UNL1       -0.1532
     36 H          67.0850   94.8479   13.1265 H       1  UNL1        0.1442
     37 H          66.3009   95.0236   11.6676 H       1  UNL1        0.1442
@<TRIPOS>BOND
     1    22    23    1
     2    23    16    1
     3    16    17   ar
     4    17    18   ar
     5    18    19   ar
     6    19    20   ar
     7    20    24    1
     8    24    25    1
     9    20    21   ar
    10    21    10    1
    11    10    11   am
    12    11    12    2
    13    11    13   am
    14    13     1    1
    15     1     2    2
    16     2     3    1
    17     3     4    2
    18     4     5    1
    19     5     6    2
    20     6     7    1
    21     7    26    1
    22    26    27   ar
    23    27    28   ar
    24    28    29   ar
    25    29    30   ar
    26    30    32    1
    27    32    33    1
    28    32    34    2
    29    32    35    2
    30    30    31   ar
    31     7     8    2
    32     8     9    1
    33    21    16   ar
    34     9     1    1
    35     8     4    1
    36    31    26   ar
    37    10    14    1
    38    13    15    1
    39    33    36    1
    40    33    37    1
@<TRIPOS>MOLECULE
*****
 37 40 0 0 0
SMALL
GASTEIGER

@<TRIPOS>ATOM
      1 C          61.7788   86.0082   10.5827 C.2     1  UNL1        0.0334
      2 C          60.5865   86.0849    9.6758 C.2     1  UNL1        0.0122
      3 C          59.9620   87.4137    9.3689 C.2     1  UNL1        0.0216
      4 C          60.5297   88.6658    9.9689 C.2     1  UNL1        0.1008
      5 N          60.1300   90.1067    9.8496 N.2     1  UNL1       -0.1483
      6 N          61.0753   90.9204   10.6828 N.2     1  UNL1       -0.1483
      7 C          62.0592   89.9825   11.3170 C.2     1  UNL1        0.1007
      8 C          61.7220   88.5890   10.8758 C.2     1  UNL1        0.0223
      9 C          62.3465   87.2603   11.1827 C.3     1  UNL1        0.0707
     10 N          64.0597   82.7753   10.2721 N.am    1  UNL1       -0.2686
     11 C          63.4351   84.1041    9.9652 C.2     1  UNL1        0.3079
     12 O          63.8422   84.8576    8.7337 O.2     1  UNL1       -0.2522
     13 N          62.4034   84.6794   10.8896 N.am    1  UNL1       -0.2714
     14 H          64.7368   82.3977    9.6653 H       1  UNL1        0.1564
     15 H          62.1362   84.1848   11.6979 H       1  UNL1        0.1561
     16 C          62.9837   80.6850   11.3780 C.ar    1  UNL1       -0.0090
     17 C          62.5766   79.9314   12.6094 C.ar    1  UNL1       -0.0031
     18 C          62.8383   80.5147   13.9664 C.ar    1  UNL1       -0.0006
     19 C          63.5072   81.8514   14.0919 C.ar    1  UNL1       -0.0031
     20 C          63.9143   82.6049   12.8605 C.ar    1  UNL1       -0.0090
     21 C          63.6526   82.0218   11.5035 C.ar    1  UNL1        0.0435
     22 C          62.7756   78.6162    9.8201 C.3     1  UNL1        0.0051
     23 C          62.7220   80.1018   10.0210 C.3     1  UNL1        0.0276
     24 C          64.5831   83.9417   12.9860 C.3     1  UNL1        0.0276
     25 C          64.0979   84.9305   14.0042 C.3     1  UNL1        0.0051
     26 C          63.1830   90.3699   12.2319 C.ar    1  UNL1        0.0205
     27 C          63.4670   89.5541   13.4582 C.ar    1  UNL1        0.0016
     28 C          64.5908   89.9416   14.3730 C.ar    1  UNL1        0.0014
     29 C          65.4306   91.1448   14.0616 C.ar    1  UNL1        0.0199
     30 C          65.1466   91.9605   12.8353 C.ar    1  UNL1        0.1217
     31 C          64.0228   91.5731   11.9205 C.ar    1  UNL1        0.0214
     32 S          65.9864   93.1638   12.5238 S.O2    1  UNL1        0.0572
     33 N          66.8262   94.3670   12.2123 N.3     1  UNL1       -0.2035
     34 O          65.8756   92.8618   11.0587 O.2     1  UNL1       -0.1532
     35 O          66.0971   93.4658   13.9889 O.2     1  UNL1       -0.1532
     36 H          66.9455   94.4461   11.2024 H       1  UNL1        0.1442
     37 H          67.7394   94.2684   12.6558 H       1  UNL1        0.1442
@<TRIPOS>BOND
     1    22    23    1
     2    23    16    1
     3    16    17   ar
     4    17    18   ar
     5    18    19   ar
     6    19    20   ar
     7    20    24    1
     8    24    25    1
     9    20    21   ar
    10    21    10    1
    11    10    11   am
    12    11    12    2
    13    11    13   am
    14    13     1    1
    15     1     2    2
    16     2     3    1
    17     3     4    2
    18     4     5    1
    19     5     6    2
    20     6     7    1
    21     7    26    1
    22    26    27   ar
    23    27    28   ar
    24    28    29   ar
    25    29    30   ar
    26    30    32    1
    27    32    33    1
    28    32    34    2
    29    32    35    2
    30    30    31   ar
    31     7     8    2
    32     8     9    1
    33    21    16   ar
    34     9     1    1
    35     8     4    1
    36    31    26   ar
    37    10    14    1
    38    13    15    1
    39    33    36    1
    40    33    37    1
@<TRIPOS>MOLECULE
*****
 37 40 0 0 0
SMALL
GASTEIGER

@<TRIPOS>ATOM
      1 C          61.8285   85.9304   10.3633 C.2     1  UNL1        0.0334
      2 C          60.8000   85.9930    9.2733 C.2     1  UNL1        0.0122
      3 C          60.1942   87.3102    8.8886 C.2     1  UNL1        0.0216
      4 C          60.6170   88.5647    9.5939 C.2     1  UNL1        0.1008
      5 N          60.1986   89.9962    9.4331 N.2     1  UNL1       -0.1483
      6 N          60.9685   90.8183   10.4237 N.2     1  UNL1       -0.1483
      7 C          61.8627   89.8948   11.1968 C.2     1  UNL1        0.1007
      8 C          61.6455   88.5021   10.6840 C.2     1  UNL1        0.0223
      9 C          62.2512   87.1849   11.0687 C.3     1  UNL1        0.0707
     10 N          64.1145   82.6872   10.2812 N.am    1  UNL1       -0.2686
     11 C          63.5086   84.0044    9.8965 C.2     1  UNL1        0.3079
     12 O          63.9771   84.7128    8.6601 O.2     1  UNL1       -0.2522
     13 N          62.4343   84.6131   10.7481 N.am    1  UNL1       -0.2714
     14 H          64.8196   82.2876    9.7223 H       1  UNL1        0.1564
     15 H          62.1268   84.1482   11.5596 H       1  UNL1        0.1561
     16 C          63.8580   82.6025   12.8653 C.ar    1  UNL1       -0.0090
     17 C          63.3895   81.8941   14.1017 C.ar    1  UNL1       -0.0031
     18 C          62.7089   80.5619   13.9904 C.ar    1  UNL1       -0.0006
     19 C          62.4969   79.9383   12.6428 C.ar    1  UNL1       -0.0031
     20 C          62.9654   80.6467   11.4064 C.ar    1  UNL1       -0.0090
     21 C          63.6459   81.9788   11.5176 C.ar    1  UNL1        0.0435
     22 C          64.0904   84.9216   14.0133 C.3     1  UNL1        0.0051
     23 C          64.5386   83.9345   12.9765 C.3     1  UNL1        0.0276
     24 C          62.7533   80.0231   10.0588 C.3     1  UNL1        0.0276
     25 C          62.7424   78.5298    9.9168 C.3     1  UNL1        0.0051
     26 C          62.8083   90.2940   12.2907 C.ar    1  UNL1        0.0205
     27 C          63.9345   91.2411   12.0000 C.ar    1  UNL1        0.0016
     28 C          64.8801   91.6403   13.0939 C.ar    1  UNL1        0.0014
     29 C          64.6994   91.0924   14.4785 C.ar    1  UNL1        0.0199
     30 C          63.5731   90.1453   14.7692 C.ar    1  UNL1        0.1217
     31 C          62.6276   89.7461   13.6753 C.ar    1  UNL1        0.0214
     32 S          63.3923   89.5974   16.1539 S.O2    1  UNL1        0.0572
     33 N          63.2116   89.0496   17.5385 N.3     1  UNL1       -0.2035
     34 O          63.2540   90.9923   16.6877 O.2     1  UNL1       -0.1532
     35 O          63.5307   88.2025   15.6199 O.2     1  UNL1       -0.1532
     36 H          63.0819   89.8197   18.1946 H       1  UNL1        0.1442
     37 H          64.0382   88.5134   17.8026 H       1  UNL1        0.1442
@<TRIPOS>BOND
     1    22    23    1
     2    23    16    1
     3    16    17   ar
     4    17    18   ar
     5    18    19   ar
     6    19    20   ar
     7    20    24    1
     8    24    25    1
     9    20    21   ar
    10    21    10    1
    11    10    11   am
    12    11    12    2
    13    11    13   am
    14    13     1    1
    15     1     2    2
    16     2     3    1
    17     3     4    2
    18     4     5    1
    19     5     6    2
    20     6     7    1
    21     7    26    1
    22    26    27   ar
    23    27    28   ar
    24    28    29   ar
    25    29    30   ar
    26    30    32    1
    27    32    33    1
    28    32    34    2
    29    32    35    2
    30    30    31   ar
    31     7     8    2
    32     8     9    1
    33    21    16   ar
    34     9     1    1
    35     8     4    1
    36    31    26   ar
    37    10    14    1
    38    13    15    1
    39    33    36    1
    40    33    37    1
@<TRIPOS>MOLECULE
*****
 37 40 0 0 0
SMALL
GASTEIGER

@<TRIPOS>ATOM
      1 C          61.8336   85.9364   10.3540 C.2     1  UNL1        0.0334
      2 C          60.8063   85.9981    9.2627 C.2     1  UNL1        0.0122
      3 C          60.2031   87.3153    8.8742 C.2     1  UNL1        0.0216
      4 C          60.6272   88.5709    9.5769 C.2     1  UNL1        0.1008
      5 N          60.2114   90.0027    9.4121 N.2     1  UNL1       -0.1483
      6 N          60.9817   90.8259   10.4015 N.2     1  UNL1       -0.1483
      7 C          61.8736   89.9028   11.1777 C.2     1  UNL1        0.1007
      8 C          61.6545   88.5092   10.6681 C.2     1  UNL1        0.0223
      9 C          62.2577   87.1919   11.0566 C.3     1  UNL1        0.0707
     10 N          64.1138   82.6890   10.2819 N.am    1  UNL1       -0.2686
     11 C          63.5106   84.0063    9.8933 C.2     1  UNL1        0.3079
     12 O          63.9813   84.7107    8.6555 O.2     1  UNL1       -0.2522
     13 N          62.4368   84.6191   10.7426 N.am    1  UNL1       -0.2714
     14 H          64.8187   82.2867    9.7245 H       1  UNL1        0.1564
     15 H          62.1279   84.1568   11.5550 H       1  UNL1        0.1561
     16 C          62.9629   80.6520   11.4117 C.ar    1  UNL1       -0.0090
     17 C          62.4923   79.9476   12.6495 C.ar    1  UNL1       -0.0031
     18 C          62.7018   80.5758   13.9955 C.ar    1  UNL1       -0.0006
     19 C          63.3820   81.9083   14.1036 C.ar    1  UNL1       -0.0031
     20 C          63.8527   82.6127   12.8657 C.ar    1  UNL1       -0.0090
     21 C          63.6432   81.9846   11.5198 C.ar    1  UNL1        0.0435
     22 C          62.7702   78.5306    9.9241 C.3     1  UNL1        0.0051
     23 C          62.7534   80.0239   10.0658 C.3     1  UNL1        0.0276
     24 C          64.5329   83.9452   12.9738 C.3     1  UNL1        0.0276
     25 C          64.1113   84.9187   14.0343 C.3     1  UNL1        0.0051
     26 C          62.8187   90.3031   12.2716 C.ar    1  UNL1        0.0205
     27 C          63.9483   91.2457   11.9792 C.ar    1  UNL1        0.0016
     28 C          64.8934   91.6460   13.0730 C.ar    1  UNL1        0.0014
     29 C          64.7090   91.1037   14.4593 C.ar    1  UNL1        0.0199
     30 C          63.5794   90.1611   14.7517 C.ar    1  UNL1        0.1217
     31 C          62.6343   89.7608   13.6579 C.ar    1  UNL1        0.0214
     32 S          63.3950   89.6187   16.1381 S.O2    1  UNL1        0.0572
     33 N          63.2105   89.0765   17.5244 N.3     1  UNL1       -0.2035
     34 O          63.2669   91.0162   16.6677 O.2     1  UNL1       -0.1532
     35 O          63.5230   88.2212   15.6084 O.2     1  UNL1       -0.1532
     36 H          63.0866   89.8495   18.1782 H       1  UNL1        0.1442
     37 H          64.0332   88.5351   17.7900 H       1  UNL1        0.1442
@<TRIPOS>BOND
     1    22    23    1
     2    23    16    1
     3    16    17   ar
     4    17    18   ar
     5    18    19   ar
     6    19    20   ar
     7    20    24    1
     8    24    25    1
     9    20    21   ar
    10    21    10    1
    11    10    11   am
    12    11    12    2
    13    11    13   am
    14    13     1    1
    15     1     2    2
    16     2     3    1
    17     3     4    2
    18     4     5    1
    19     5     6    2
    20     6     7    1
    21     7    26    1
    22    26    27   ar
    23    27    28   ar
    24    28    29   ar
    25    29    30   ar
    26    30    32    1
    27    32    33    1
    28    32    34    2
    29    32    35    2
    30    30    31   ar
    31     7     8    2
    32     8     9    1
    33    21    16   ar
    34     9     1    1
    35     8     4    1
    36    31    26   ar
    37    10    14    1
    38    13    15    1
    39    33    36    1
    40    33    37    1
@<TRIPOS>MOLECULE
*****
 37 40 0 0 0
SMALL
GASTEIGER

@<TRIPOS>ATOM
      1 C          61.6795   86.0476   10.9118 C.2     1  UNL1        0.0334
      2 C          60.5110   86.1312    9.9749 C.2     1  UNL1        0.0122
      3 C          59.9733   87.4699    9.5644 C.2     1  UNL1        0.0216
      4 C          60.6040   88.7250   10.0907 C.2     1  UNL1        0.1008
      5 N          60.2939   90.1752    9.8646 N.2     1  UNL1       -0.1483
      6 N          61.2707   90.9877   10.6619 N.2     1  UNL1       -0.1483
      7 C          62.1845   90.0398   11.3805 C.2     1  UNL1        0.1007
      8 C          61.7724   88.6414   11.0275 C.2     1  UNL1        0.0223
      9 C          62.3102   87.3027   11.4381 C.3     1  UNL1        0.0707
     10 N          63.4957   83.2248   13.0293 N.am    1  UNL1       -0.2686
     11 C          62.9579   84.5635   12.6187 C.2     1  UNL1        0.3079
     12 O          63.1607   85.7570   13.5044 O.2     1  UNL1       -0.2522
     13 N          62.2173   84.7088   11.3224 N.am    1  UNL1       -0.2714
     14 H          63.9817   83.1294   13.8801 H       1  UNL1        0.1564
     15 H          62.0842   83.9255   10.7411 H       1  UNL1        0.1561
     16 C          62.5660   80.8264   12.6633 C.ar    1  UNL1       -0.0090
     17 C          62.3632   79.6330   11.7776 C.ar    1  UNL1       -0.0031
     18 C          62.8872   79.6444   10.3721 C.ar    1  UNL1       -0.0006
     19 C          63.6139   80.8492    9.8524 C.ar    1  UNL1       -0.0031
     20 C          63.8168   82.0427   10.7381 C.ar    1  UNL1       -0.0090
     21 C          63.2928   82.0313   12.1436 C.ar    1  UNL1        0.0435
     22 C          60.5650   80.7350   14.3180 C.3     1  UNL1        0.0051
     23 C          62.0421   80.8151   14.0688 C.3     1  UNL1        0.0276
     24 C          64.5435   83.2475   10.2184 C.3     1  UNL1        0.0276
     25 C          63.9620   84.0447    9.0886 C.3     1  UNL1        0.0051
     26 C          63.3123   90.4230   12.2922 C.ar    1  UNL1        0.0205
     27 C          63.6403   89.5676   13.4800 C.ar    1  UNL1        0.0016
     28 C          64.7681   89.9508   14.3917 C.ar    1  UNL1        0.0014
     29 C          65.5680   91.1893   14.1156 C.ar    1  UNL1        0.0199
     30 C          65.2400   92.0447   12.9278 C.ar    1  UNL1        0.1217
     31 C          64.1122   91.6615   12.0162 C.ar    1  UNL1        0.0214
     32 S          66.0399   93.2833   12.6517 S.O2    1  UNL1        0.0572
     33 N          66.8398   94.5218   12.3757 N.3     1  UNL1       -0.2035
     34 O          66.4895   93.3118   14.0824 O.2     1  UNL1       -0.1532
     35 O          65.5903   93.2547   11.2210 O.2     1  UNL1       -0.1532
     36 H          67.3093   94.8208   13.2304 H       1  UNL1        0.1442
     37 H          66.2182   95.2629   12.0521 H       1  UNL1        0.1442
@<TRIPOS>BOND
     1    22    23    1
     2    23    16    1
     3    16    17   ar
     4    17    18   ar
     5    18    19   ar
     6    19    20   ar
     7    20    24    1
     8    24    25    1
     9    20    21   ar
    10    21    10    1
    11    10    11   am
    12    11    12    2
    13    11    13   am
    14    13     1    1
    15     1     2    2
    16     2     3    1
    17     3     4    2
    18     4     5    1
    19     5     6    2
    20     6     7    1
    21     7    26    1
    22    26    27   ar
    23    27    28   ar
    24    28    29   ar
    25    29    30   ar
    26    30    32    1
    27    32    33    1
    28    32    34    2
    29    32    35    2
    30    30    31   ar
    31     7     8    2
    32     8     9    1
    33    21    16   ar
    34     9     1    1
    35     8     4    1
    36    31    26   ar
    37    10    14    1
    38    13    15    1
    39    33    36    1
    40    33    37    1
@<TRIPOS>MOLECULE
*****
 37 40 0 0 0
SMALL
GASTEIGER

@<TRIPOS>ATOM
      1 C          61.6884   86.0853   10.8853 C.2     1  UNL1        0.0334
      2 C          60.5305   86.1617    9.9348 C.2     1  UNL1        0.0122
      3 C          60.0007   87.4972    9.5041 C.2     1  UNL1        0.0216
      4 C          60.6286   88.7563   10.0239 C.2     1  UNL1        0.1008
      5 N          60.3246   90.2047    9.7790 N.2     1  UNL1       -0.1483
      6 N          61.2945   91.0234   10.5783 N.2     1  UNL1       -0.1483
      7 C          62.1980   90.0811   11.3171 C.2     1  UNL1        0.1007
      8 C          61.7864   88.6800   10.9744 C.2     1  UNL1        0.0223
      9 C          62.3163   87.3445   11.4052 C.3     1  UNL1        0.0707
     10 N          63.5181   83.2906   13.0283 N.am    1  UNL1       -0.2686
     11 C          62.9881   84.6261   12.5976 C.2     1  UNL1        0.3079
     12 O          63.2280   85.8380   13.4483 O.2     1  UNL1       -0.2522
     13 N          62.2183   84.7497   11.3161 N.am    1  UNL1       -0.2714
     14 H          64.0233   83.2094   13.8694 H       1  UNL1        0.1564
     15 H          62.0609   83.9543   10.7578 H       1  UNL1        0.1561
     16 C          63.8356   82.0167   10.7863 C.ar    1  UNL1       -0.0090
     17 C          63.5957   80.8048    9.9356 C.ar    1  UNL1       -0.0031
     18 C          62.7984   79.6548   10.4761 C.ar    1  UNL1       -0.0006
     19 C          62.2411   79.7168   11.8673 C.ar    1  UNL1       -0.0031
     20 C          62.4810   80.9288   12.7181 C.ar    1  UNL1       -0.0090
     21 C          63.2782   82.0787   12.1776 C.ar    1  UNL1        0.0435
     22 C          64.0515   84.0465    9.1791 C.3     1  UNL1        0.0051
     23 C          64.6328   83.1666   10.2459 C.3     1  UNL1        0.0276
     24 C          61.9237   80.9908   14.1093 C.3     1  UNL1        0.0276
     25 C          60.5064   80.5737   14.3687 C.3     1  UNL1        0.0051
     26 C          63.3167   90.4714   12.2370 C.ar    1  UNL1        0.0205
     27 C          63.6286   89.6287   13.4381 C.ar    1  UNL1        0.0016
     28 C          64.7473   90.0190   14.3580 C.ar    1  UNL1        0.0014
     29 C          65.5540   91.2519   14.0769 C.ar    1  UNL1        0.0199
     30 C          65.2421   92.0945   12.8758 C.ar    1  UNL1        0.1217
     31 C          64.1234   91.7043   11.9559 C.ar    1  UNL1        0.0214
     32 S          66.0489   93.3275   12.5946 S.O2    1  UNL1        0.0572
     33 N          66.8556   94.5604   12.3134 N.3     1  UNL1       -0.2035
     34 O          66.0902   92.9684   11.1389 O.2     1  UNL1       -0.1532
     35 O          66.0075   93.6866   14.0504 O.2     1  UNL1       -0.1532
     36 H          67.0650   94.6096   11.3163 H       1  UNL1        0.1442
     37 H          67.7270   94.5246   12.8424 H       1  UNL1        0.1442
@<TRIPOS>BOND
     1    22    23    1
     2    23    16    1
     3    16    17   ar
     4    17    18   ar
     5    18    19   ar
     6    19    20   ar
     7    20    24    1
     8    24    25    1
     9    20    21   ar
    10    21    10    1
    11    10    11   am
    12    11    12    2
    13    11    13   am
    14    13     1    1
    15     1     2    2
    16     2     3    1
    17     3     4    2
    18     4     5    1
    19     5     6    2
    20     6     7    1
    21     7    26    1
    22    26    27   ar
    23    27    28   ar
    24    28    29   ar
    25    29    30   ar
    26    30    32    1
    27    32    33    1
    28    32    34    2
    29    32    35    2
    30    30    31   ar
    31     7     8    2
    32     8     9    1
    33    21    16   ar
    34     9     1    1
    35     8     4    1
    36    31    26   ar
    37    10    14    1
    38    13    15    1
    39    33    36    1
    40    33    37    1
@<TRIPOS>MOLECULE
*****
 37 40 0 0 0
SMALL
GASTEIGER

@<TRIPOS>ATOM
      1 C          63.3285   90.7093   10.6042 C.2     1  UNL1        0.0334
      2 C          62.1593   91.0121    9.7147 C.2     1  UNL1        0.0122
      3 C          61.0475   90.0154    9.5722 C.2     1  UNL1        0.0216
      4 C          61.1048   88.7159   10.3193 C.2     1  UNL1        0.1008
      5 N          60.1644   87.5486   10.3764 N.2     1  UNL1       -0.1483
      6 N          60.7524   86.5245   11.3012 N.2     1  UNL1       -0.1483
      7 C          62.0562   87.0588   11.8157 C.2     1  UNL1        0.1007
      8 C          62.2740   88.4132   11.2088 C.2     1  UNL1        0.0223
      9 C          63.3858   89.4099   11.3513 C.3     1  UNL1        0.0707
     10 N          65.8625   93.2934   12.2327 N.am    1  UNL1       -0.2686
     11 C          64.7506   92.2967   12.0902 C.2     1  UNL1        0.3079
     12 O          63.9489   91.8907   13.2912 O.2     1  UNL1       -0.2522
     13 N          64.4404   91.7060   10.7468 N.am    1  UNL1       -0.2714
     14 H          66.0661   93.6811   13.1145 H       1  UNL1        0.1564
     15 H          64.9666   91.9725    9.9585 H       1  UNL1        0.1561
     16 C          67.7828   92.8258   10.5463 C.ar    1  UNL1       -0.0090
     17 C          68.5845   93.2318    9.3453 C.ar    1  UNL1       -0.0031
     18 C          68.2677   94.5115    8.6297 C.ar    1  UNL1       -0.0006
     19 C          67.1491   95.3851    9.1151 C.ar    1  UNL1       -0.0031
     20 C          66.3474   94.9791   10.3161 C.ar    1  UNL1       -0.0090
     21 C          66.6642   93.6994   11.0317 C.ar    1  UNL1        0.0435
     22 C          68.7947   91.5821   12.5907 C.3     1  UNL1        0.0051
     23 C          68.0996   91.5461   11.2619 C.3     1  UNL1        0.0276
     24 C          65.2289   95.8527   10.8015 C.3     1  UNL1        0.0276
     25 C          64.5982   96.8485    9.8738 C.3     1  UNL1        0.0051
     26 C          62.9801   86.3612   12.7695 C.ar    1  UNL1        0.0205
     27 C          63.8795   87.1622   13.6636 C.ar    1  UNL1        0.0016
     28 C          64.8034   86.4646   14.6175 C.ar    1  UNL1        0.0014
     29 C          64.8278   84.9661   14.6773 C.ar    1  UNL1        0.0199
     30 C          63.9284   84.1651   13.7833 C.ar    1  UNL1        0.1217
     31 C          63.0045   84.8626   12.8294 C.ar    1  UNL1        0.0214
     32 S          63.9527   82.6664   13.8431 S.O2    1  UNL1        0.0572
     33 N          63.9771   81.1678   13.9028 N.3     1  UNL1       -0.2035
     34 O          64.1039   82.6094   12.3518 O.2     1  UNL1       -0.1532
     35 O          63.8016   82.7234   15.3343 O.2     1  UNL1       -0.1532
     36 H          64.0796   80.7916   12.9603 H       1  UNL1        0.1442
     37 H          63.1057   80.8296   14.3110 H       1  UNL1        0.1442
@<TRIPOS>BOND
     1    22    23    1
     2    23    16    1
     3    16    17   ar
     4    17    18   ar
     5    18    19   ar
     6    19    20   ar
     7    20    24    1
     8    24    25    1
     9    20    21   ar
    10    21    10    1
    11    10    11   am
    12    11    12    2
    13    11    13   am
    14    13     1    1
    15     1     2    2
    16     2     3    1
    17     3     4    2
    18     4     5    1
    19     5     6    2
    20     6     7    1
    21     7    26    1
    22    26    27   ar
    23    27    28   ar
    24    28    29   ar
    25    29    30   ar
    26    30    32    1
    27    32    33    1
    28    32    34    2
    29    32    35    2
    30    30    31   ar
    31     7     8    2
    32     8     9    1
    33    21    16   ar
    34     9     1    1
    35     8     4    1
    36    31    26   ar
    37    10    14    1
    38    13    15    1
    39    33    36    1
    40    33    37    1
@<TRIPOS>MOLECULE
*****
 37 40 0 0 0
SMALL
GASTEIGER

@<TRIPOS>ATOM
      1 C          63.3413   90.7258   10.5967 C.2     1  UNL1        0.0334
      2 C          62.1764   91.0247    9.7003 C.2     1  UNL1        0.0122
      3 C          61.0692   90.0239    9.5506 C.2     1  UNL1        0.0216
      4 C          61.1268   88.7243   10.2973 C.2     1  UNL1        0.1008
      5 N          60.1904   87.5535   10.3480 N.2     1  UNL1       -0.1483
      6 N          60.7766   86.5310   11.2758 N.2     1  UNL1       -0.1483
      7 C          62.0753   87.0699   11.7985 C.2     1  UNL1        0.1007
      8 C          62.2917   88.4254   11.1937 C.2     1  UNL1        0.0223
      9 C          63.3989   89.4261   11.3435 C.3     1  UNL1        0.0707
     10 N          65.8449   93.3309   12.2387 N.am    1  UNL1       -0.2686
     11 C          64.7376   92.3301   12.0890 C.2     1  UNL1        0.3079
     12 O          63.9192   91.9329   13.2817 O.2     1  UNL1       -0.2522
     13 N          64.4486   91.7266   10.7465 N.am    1  UNL1       -0.2714
     14 H          66.0345   93.7270   13.1198 H       1  UNL1        0.1564
     15 H          64.9857   91.9872    9.9637 H       1  UNL1        0.1561
     16 C          66.3632   95.0077   10.3231 C.ar    1  UNL1       -0.0090
     17 C          67.1815   95.4049    9.1303 C.ar    1  UNL1       -0.0031
     18 C          68.2999   94.5224    8.6605 C.ar    1  UNL1       -0.0006
     19 C          68.5998   93.2428    9.3835 C.ar    1  UNL1       -0.0031
     20 C          67.7815   92.8456   10.5762 C.ar    1  UNL1       -0.0090
     21 C          66.6632   93.7280   11.0460 C.ar    1  UNL1        0.0435
     22 C          64.6017   96.8560    9.8424 C.3     1  UNL1        0.0051
     23 C          65.2449   95.8901   10.7929 C.3     1  UNL1        0.0276
     24 C          68.0814   91.5661   11.2991 C.3     1  UNL1        0.0276
     25 C          68.7767   91.6005   12.6278 C.3     1  UNL1        0.0051
     26 C          62.9959   86.3752   12.7576 C.ar    1  UNL1        0.0205
     27 C          63.9086   87.1784   13.6363 C.ar    1  UNL1        0.0016
     28 C          64.8292   86.4837   14.5953 C.ar    1  UNL1        0.0014
     29 C          64.8373   84.9859   14.6758 C.ar    1  UNL1        0.0199
     30 C          63.9246   84.1828   13.7972 C.ar    1  UNL1        0.1217
     31 C          63.0040   84.8774   12.8381 C.ar    1  UNL1        0.0214
     32 S          63.9326   82.6849   13.8776 S.O2    1  UNL1        0.0572
     33 N          63.9406   81.1871   13.9580 N.3     1  UNL1       -0.2035
     34 O          64.4334   82.6118   12.4656 O.2     1  UNL1       -0.1532
     35 O          63.4318   82.7580   15.2897 O.2     1  UNL1       -0.1532
     36 H          64.2635   80.8007   13.0709 H       1  UNL1        0.1442
     37 H          62.9969   80.8519   14.1514 H       1  UNL1        0.1442
@<TRIPOS>BOND
     1    22    23    1
     2    23    16    1
     3    16    17   ar
     4    17    18   ar
     5    18    19   ar
     6    19    20   ar
     7    20    24    1
     8    24    25    1
     9    20    21   ar
    10    21    10    1
    11    10    11   am
    12    11    12    2
    13    11    13   am
    14    13     1    1
    15     1     2    2
    16     2     3    1
    17     3     4    2
    18     4     5    1
    19     5     6    2
    20     6     7    1
    21     7    26    1
    22    26    27   ar
    23    27    28   ar
    24    28    29   ar
    25    29    30   ar
    26    30    32    1
    27    32    33    1
    28    32    34    2
    29    32    35    2
    30    30    31   ar
    31     7     8    2
    32     8     9    1
    33    21    16   ar
    34     9     1    1
    35     8     4    1
    36    31    26   ar
    37    10    14    1
    38    13    15    1
    39    33    36    1
    40    33    37    1
