@<TRIPOS>MOLECULE
*****
 35 39 0 0 0
SMALL
GASTEIGER

@<TRIPOS>ATOM
      1 O          63.7382   87.3290   13.3224 O.2     1  UNL1       -0.2699
      2 C          62.8334   86.7059   12.3011 C.2     1  UNL1        0.2506
      3 N          61.9154   87.5684   11.4867 N.am    1  UNL1       -0.2723
      4 C          61.0106   86.9453   10.4653 C.3     1  UNL1        0.1257
      5 C          60.0925   87.8078    9.6509 C.3     1  UNL1        0.1637
      6 O          60.0793   89.2934    9.8578 O.3     1  UNL1       -0.3502
      7 C          60.9841   89.9165   10.8791 C.3     1  UNL1        0.1622
      8 C          61.9021   89.0540   11.6935 C.3     1  UNL1        0.1096
      9 C          62.8467   85.2202   12.0942 C.ar    1  UNL1        0.0729
     10 C          62.8469   84.6566   10.7041 C.ar    1  UNL1        0.0060
     11 C          62.8602   83.1710   10.4972 C.ar    1  UNL1        0.0041
     12 C          62.8732   82.2491   11.6804 C.ar    1  UNL1        0.0730
     13 C          62.8729   82.8128   13.0704 C.ar    1  UNL1        0.0249
     14 C          62.8597   84.2984   13.2773 C.ar    1  UNL1        0.1072
     15 N          62.8594   84.8620   14.6674 N.ar    1  UNL1       -0.1477
     16 N          64.0563   85.3776   15.4100 N.ar    1  UNL1       -0.1447
     17 C          63.5988   85.8433   16.7605 C.ar    1  UNL1        0.1446
     18 C          62.1191   85.6156   16.8526 C.ar    1  UNL1        0.1446
     19 N          61.6621   85.0091   15.5590 N.ar    1  UNL1       -0.1447
     20 C          62.8865   80.7635   11.4735 C.3     1  UNL1        0.4186
     21 F          62.8998   79.2779   11.2666 F       1  UNL1       -0.1659
     22 F          63.2283   80.9679   10.0274 F       1  UNL1       -0.1659
     23 F          62.5447   80.5590   12.9196 F       1  UNL1       -0.1659
     24 C          62.8069   89.6771   12.7148 C.3     1  UNL1        0.0487
     25 C          63.8153   90.7054   12.2957 C.ar    1  UNL1       -0.0203
     26 C          63.7448   91.3096   10.9246 C.ar    1  UNL1       -0.0042
     27 C          64.7532   92.3379   10.5054 C.ar    1  UNL1       -0.0002
     28 C          65.8321   92.7620   11.4573 C.ar    1  UNL1        0.0031
     29 C          65.9025   92.1578   12.8284 C.ar    1  UNL1        0.0388
     30 C          64.8941   91.1295   13.2476 C.ar    1  UNL1       -0.0011
     31 C          66.9814   92.5819   13.7804 C.ar    1  UNL1        0.2037
     32 N          66.7802   93.3330   15.0631 N.ar    1  UNL1       -0.1829
     33 C          68.1254   93.5447   15.6922 C.ar    1  UNL1        0.3164
     34 O          69.1579   92.9244   14.7983 O.2     1  UNL1       -0.3274
     35 N          68.4510   92.3293   13.6167 N.ar    1  UNL1       -0.0554
@<TRIPOS>BOND
     1     1     2    2
     2     2     9    1
     3     9    10   ar
     4    10    11   ar
     5    11    12   ar
     6    12    20    1
     7    20    21    1
     8    20    22    1
     9    20    23    1
    10    12    13   ar
    11    13    14   ar
    12    14    15    1
    13    15    16   ar
    14    16    17   ar
    15    17    18   ar
    16    18    19   ar
    17     2     3   am
    18     3     4    1
    19     4     5    1
    20     5     6    1
    21     6     7    1
    22     7     8    1
    23     8    24    1
    24    24    25    1
    25    25    26   ar
    26    26    27   ar
    27    27    28   ar
    28    28    29   ar
    29    29    31    1
    30    31    32   ar
    31    32    33   ar
    32    33    34   ar
    33    34    35   ar
    34    29    30   ar
    35    14     9   ar
    36    19    15   ar
    37     8     3    1
    38    30    25   ar
    39    35    31   ar
@<TRIPOS>MOLECULE
*****
 35 39 0 0 0
SMALL
GASTEIGER

@<TRIPOS>ATOM
      1 O          63.8139   87.5509   14.0324 O.2     1  UNL1       -0.2699
      2 C          63.1847   87.1003   12.7474 C.2     1  UNL1        0.2506
      3 N          62.6301   88.1118   11.7887 N.am    1  UNL1       -0.2723
      4 C          62.0009   87.6612   10.5038 C.3     1  UNL1        0.1257
      5 C          61.4463   88.6728    9.5450 C.3     1  UNL1        0.1637
      6 O          61.5210   90.1349    9.8712 O.3     1  UNL1       -0.3502
      7 C          62.1502   90.5856   11.1561 C.3     1  UNL1        0.1622
      8 C          62.7048   89.5740   12.1149 C.3     1  UNL1        0.1096
      9 C          63.1100   85.6380   12.4213 C.ar    1  UNL1        0.0729
     10 C          63.1525   85.1853   10.9919 C.ar    1  UNL1        0.0060
     11 C          63.0778   83.7231   10.6657 C.ar    1  UNL1        0.0041
     12 C          62.9607   82.7137   11.7689 C.ar    1  UNL1        0.0730
     13 C          62.9182   83.1664   13.1984 C.ar    1  UNL1        0.0249
     14 C          62.9928   84.6285   13.5245 C.ar    1  UNL1        0.1072
     15 N          62.9503   85.0812   14.9540 N.ar    1  UNL1       -0.1477
     16 N          61.7164   85.2423   15.7915 N.ar    1  UNL1       -0.1447
     17 C          62.1378   85.7130   17.1520 C.ar    1  UNL1        0.1446
     18 C          63.6321   85.8428   17.1553 C.ar    1  UNL1        0.1446
     19 N          64.1343   85.4524   15.7969 N.ar    1  UNL1       -0.1447
     20 C          62.8860   81.2514   11.4428 C.3     1  UNL1        0.4186
     21 F          62.8113   79.7892   11.1167 F       1  UNL1       -0.1659
     22 F          62.2153   80.9921   12.7592 F       1  UNL1       -0.1659
     23 F          63.5567   81.5107   10.1264 F       1  UNL1       -0.1659
     24 C          63.3340   90.0247   13.3998 C.3     1  UNL1        0.0487
     25 C          64.5980   90.8319   13.3732 C.ar    1  UNL1       -0.0203
     26 C          65.5801   90.7247   14.5019 C.ar    1  UNL1       -0.0042
     27 C          66.8441   91.5320   14.4754 C.ar    1  UNL1       -0.0002
     28 C          67.1260   92.4464   13.3202 C.ar    1  UNL1        0.0031
     29 C          66.1438   92.5535   12.1915 C.ar    1  UNL1        0.0388
     30 C          64.8798   91.7463   12.2180 C.ar    1  UNL1       -0.0011
     31 C          66.4256   93.4679   11.0363 C.ar    1  UNL1        0.2037
     32 N          67.5614   93.3375   10.0653 N.ar    1  UNL1       -0.1829
     33 C          67.4589   94.4622    9.0782 C.ar    1  UNL1        0.3164
     34 O          66.2597   95.2879    9.4391 O.2     1  UNL1       -0.3274
     35 N          65.6211   94.6734   10.6493 N.ar    1  UNL1       -0.0554
@<TRIPOS>BOND
     1     1     2    2
     2     2     9    1
     3     9    10   ar
     4    10    11   ar
     5    11    12   ar
     6    12    20    1
     7    20    21    1
     8    20    22    1
     9    20    23    1
    10    12    13   ar
    11    13    14   ar
    12    14    15    1
    13    15    16   ar
    14    16    17   ar
    15    17    18   ar
    16    18    19   ar
    17     2     3   am
    18     3     4    1
    19     4     5    1
    20     5     6    1
    21     6     7    1
    22     7     8    1
    23     8    24    1
    24    24    25    1
    25    25    26   ar
    26    26    27   ar
    27    27    28   ar
    28    28    29   ar
    29    29    31    1
    30    31    32   ar
    31    32    33   ar
    32    33    34   ar
    33    34    35   ar
    34    29    30   ar
    35    14     9   ar
    36    19    15   ar
    37     8     3    1
    38    30    25   ar
    39    35    31   ar
@<TRIPOS>MOLECULE
*****
 35 39 0 0 0
SMALL
GASTEIGER

@<TRIPOS>ATOM
      1 O          63.5784   88.7380   12.2173 O.2     1  UNL1       -0.2699
      2 C          63.4332   87.6608   13.2510 C.2     1  UNL1        0.2506
      3 N          63.3644   88.0212   14.7054 N.am    1  UNL1       -0.2723
      4 C          63.2192   86.9440   15.7390 C.3     1  UNL1        0.1257
      5 C          63.1504   87.3045   17.1935 C.3     1  UNL1        0.1637
      6 O          63.2268   88.7422   17.6142 O.3     1  UNL1       -0.3502
      7 C          63.3720   89.8195   16.5806 C.3     1  UNL1        0.1622
      8 C          63.4408   89.4590   15.1262 C.3     1  UNL1        0.1096
      9 C          63.3568   86.2230   12.8302 C.ar    1  UNL1        0.0729
     10 C          64.1560   85.1845   13.5600 C.ar    1  UNL1        0.0060
     11 C          64.0797   83.7467   13.1393 C.ar    1  UNL1        0.0041
     12 C          63.2041   83.3475   11.9887 C.ar    1  UNL1        0.0730
     13 C          62.4048   84.3861   11.2588 C.ar    1  UNL1        0.0249
     14 C          62.4812   85.8238   11.6796 C.ar    1  UNL1        0.1072
     15 N          61.6820   86.8623   10.9497 N.ar    1  UNL1       -0.1477
     16 N          61.9443   87.3607    9.5594 N.ar    1  UNL1       -0.1447
     17 C          60.9046   88.3912    9.2325 C.ar    1  UNL1        0.1446
     18 C          59.9996   88.5298   10.4207 C.ar    1  UNL1        0.1446
     19 N          60.4801   87.5849   11.4820 N.ar    1  UNL1       -0.1447
     20 C          63.1277   81.9098   11.5679 C.3     1  UNL1        0.4186
     21 F          63.0512   80.4720   11.1471 F       1  UNL1       -0.1659
     22 F          62.0328   81.6758   12.5661 F       1  UNL1       -0.1659
     23 F          64.2226   82.1437   10.5697 F       1  UNL1       -0.1659
     24 C          63.5860   90.5363   14.0925 C.3     1  UNL1        0.0487
     25 C          64.9249   91.1678   13.8504 C.ar    1  UNL1       -0.0203
     26 C          66.0288   90.9922   14.8506 C.ar    1  UNL1       -0.0042
     27 C          67.3677   91.6237   14.6085 C.ar    1  UNL1       -0.0002
     28 C          67.6026   92.4310   13.3663 C.ar    1  UNL1        0.0031
     29 C          66.4985   92.6067   12.3661 C.ar    1  UNL1        0.0388
     30 C          65.1597   91.9751   12.6082 C.ar    1  UNL1       -0.0011
     31 C          66.7334   93.4139   11.1238 C.ar    1  UNL1        0.2037
     32 N          67.8076   93.1722   10.1052 N.ar    1  UNL1       -0.1829
     33 C          67.6734   94.2135    9.0339 C.ar    1  UNL1        0.3164
     34 O          66.5162   95.0988    9.3904 O.2     1  UNL1       -0.3274
     35 N          65.9352   94.6047   10.6821 N.ar    1  UNL1       -0.0554
@<TRIPOS>BOND
     1     1     2    2
     2     2     9    1
     3     9    10   ar
     4    10    11   ar
     5    11    12   ar
     6    12    20    1
     7    20    21    1
     8    20    22    1
     9    20    23    1
    10    12    13   ar
    11    13    14   ar
    12    14    15    1
    13    15    16   ar
    14    16    17   ar
    15    17    18   ar
    16    18    19   ar
    17     2     3   am
    18     3     4    1
    19     4     5    1
    20     5     6    1
    21     6     7    1
    22     7     8    1
    23     8    24    1
    24    24    25    1
    25    25    26   ar
    26    26    27   ar
    27    27    28   ar
    28    28    29   ar
    29    29    31    1
    30    31    32   ar
    31    32    33   ar
    32    33    34   ar
    33    34    35   ar
    34    29    30   ar
    35    14     9   ar
    36    19    15   ar
    37     8     3    1
    38    30    25   ar
    39    35    31   ar
@<TRIPOS>MOLECULE
*****
 35 39 0 0 0
SMALL
GASTEIGER

@<TRIPOS>ATOM
      1 O          62.9470   87.7806   12.5623 O.2     1  UNL1       -0.2699
      2 C          62.7011   88.8941   11.5878 C.2     1  UNL1        0.2506
      3 N          61.6566   88.7412   10.5223 N.am    1  UNL1       -0.2723
      4 C          61.4107   89.8547    9.5477 C.3     1  UNL1        0.1257
      5 C          60.3661   89.7018    8.4821 C.3     1  UNL1        0.1637
      6 O          59.5674   88.4355    8.3911 O.3     1  UNL1       -0.3502
      7 C          59.8133   87.3220    9.3656 C.3     1  UNL1        0.1622
      8 C          60.8578   87.4748   10.4312 C.3     1  UNL1        0.1096
      9 C          63.4999   90.1605   11.6789 C.ar    1  UNL1        0.0729
     10 C          63.7653   90.9703   10.4445 C.ar    1  UNL1        0.0060
     11 C          64.5640   92.2366   10.5355 C.ar    1  UNL1        0.0041
     12 C          65.0974   92.6932   11.8610 C.ar    1  UNL1        0.0730
     13 C          64.8320   91.8835   13.0955 C.ar    1  UNL1        0.0249
     14 C          64.0333   90.6171   13.0044 C.ar    1  UNL1        0.1072
     15 N          63.7679   89.8073   14.2389 N.ar    1  UNL1       -0.1477
     16 N          64.5101   88.5740   14.6607 N.ar    1  UNL1       -0.1447
     17 C          63.9147   88.0931   15.9508 C.ar    1  UNL1        0.1446
     18 C          62.8045   89.0293   16.3263 C.ar    1  UNL1        0.1446
     19 N          62.7138   90.0888   15.2683 N.ar    1  UNL1       -0.1447
     20 C          65.8961   93.9596   11.9521 C.3     1  UNL1        0.4186
     21 F          66.6949   95.2260   12.0433 F       1  UNL1       -0.1659
     22 F          66.2846   93.6134   13.3590 F       1  UNL1       -0.1659
     23 F          65.5077   94.3059   10.5453 F       1  UNL1       -0.1659
     24 C          61.1036   86.3613   11.4057 C.3     1  UNL1        0.0487
     25 C          62.0137   85.2279   11.0354 C.ar    1  UNL1       -0.0203
     26 C          62.7758   85.2691    9.7442 C.ar    1  UNL1       -0.0042
     27 C          63.6859   84.1357    9.3739 C.ar    1  UNL1       -0.0002
     28 C          63.8338   82.9610   10.2949 C.ar    1  UNL1        0.0031
     29 C          63.0716   82.9198   11.5862 C.ar    1  UNL1        0.0388
     30 C          62.1616   84.0532   11.9565 C.ar    1  UNL1       -0.0011
     31 C          63.2195   81.7451   12.5072 C.ar    1  UNL1        0.2037
     32 N          62.5244   80.4232   12.3688 N.ar    1  UNL1       -0.1829
     33 C          62.9638   79.5472   13.5044 C.ar    1  UNL1        0.3164
     34 O          63.9305   80.3278   14.3447 O.2     1  UNL1       -0.3274
     35 N          64.0886   81.6862   13.7285 N.ar    1  UNL1       -0.0554
@<TRIPOS>BOND
     1     1     2    2
     2     2     9    1
     3     9    10   ar
     4    10    11   ar
     5    11    12   ar
     6    12    20    1
     7    20    21    1
     8    20    22    1
     9    20    23    1
    10    12    13   ar
    11    13    14   ar
    12    14    15    1
    13    15    16   ar
    14    16    17   ar
    15    17    18   ar
    16    18    19   ar
    17     2     3   am
    18     3     4    1
    19     4     5    1
    20     5     6    1
    21     6     7    1
    22     7     8    1
    23     8    24    1
    24    24    25    1
    25    25    26   ar
    26    26    27   ar
    27    27    28   ar
    28    28    29   ar
    29    29    31    1
    30    31    32   ar
    31    32    33   ar
    32    33    34   ar
    33    34    35   ar
    34    29    30   ar
    35    14     9   ar
    36    19    15   ar
    37     8     3    1
    38    30    25   ar
    39    35    31   ar
@<TRIPOS>MOLECULE
*****
 35 39 0 0 0
SMALL
GASTEIGER

@<TRIPOS>ATOM
      1 O          62.8448   89.9967   11.6304 O.2     1  UNL1       -0.2699
      2 C          62.8761   88.4987   11.7013 C.2     1  UNL1        0.2506
      3 N          63.4449   87.8168   12.9102 N.am    1  UNL1       -0.2723
      4 C          63.4762   86.3188   12.9810 C.3     1  UNL1        0.1257
      5 C          64.0450   85.6369   14.1900 C.3     1  UNL1        0.1637
      6 O          64.5824   86.4530   15.3281 O.3     1  UNL1       -0.3502
      7 C          64.5511   87.9510   15.2572 C.3     1  UNL1        0.1622
      8 C          63.9823   88.6329   14.0483 C.3     1  UNL1        0.1096
      9 C          62.3387   87.6826   10.5632 C.ar    1  UNL1        0.0729
     10 C          63.2338   86.7172    9.8443 C.ar    1  UNL1        0.0060
     11 C          62.6964   85.9012    8.7062 C.ar    1  UNL1        0.0041
     12 C          61.2640   86.0505    8.2871 C.ar    1  UNL1        0.0730
     13 C          60.3689   87.0159    9.0060 C.ar    1  UNL1        0.0249
     14 C          60.9062   87.8320   10.1440 C.ar    1  UNL1        0.1072
     15 N          60.0112   88.7974   10.8629 N.ar    1  UNL1       -0.1477
     16 N          59.2134   88.5068   12.0995 N.ar    1  UNL1       -0.1447
     17 C          58.4659   89.7527   12.4723 C.ar    1  UNL1        0.1446
     18 C          58.8016   90.8133   11.4661 C.ar    1  UNL1        0.1446
     19 N          59.7566   90.2229   10.4715 N.ar    1  UNL1       -0.1447
     20 C          60.7265   85.2344    7.1489 C.3     1  UNL1        0.4186
     21 F          60.1891   84.4184    6.0109 F       1  UNL1       -0.1659
     22 F          59.3507   85.7693    7.4152 F       1  UNL1       -0.1659
     23 F          62.1023   84.6995    6.8827 F       1  UNL1       -0.1659
     24 C          63.9510   90.1309   13.9774 C.3     1  UNL1        0.0487
     25 C          65.2329   90.9044   13.8860 C.ar    1  UNL1       -0.0203
     26 C          66.1826   90.9221   15.0469 C.ar    1  UNL1       -0.0042
     27 C          67.4645   91.6956   14.9555 C.ar    1  UNL1       -0.0002
     28 C          67.7967   92.4515   13.7032 C.ar    1  UNL1        0.0031
     29 C          66.8469   92.4338   12.5422 C.ar    1  UNL1        0.0388
     30 C          65.5650   91.6603   12.6337 C.ar    1  UNL1       -0.0011
     31 C          67.1791   93.1896   11.2899 C.ar    1  UNL1        0.2037
     32 N          67.9155   92.6465   10.1013 N.ar    1  UNL1       -0.1829
     33 C          68.0247   93.7425    9.0831 C.ar    1  UNL1        0.3164
     34 O          67.3559   94.9631    9.6424 O.2     1  UNL1       -0.3274
     35 N          66.8332   94.6215   11.0063 N.ar    1  UNL1       -0.0554
@<TRIPOS>BOND
     1     1     2    2
     2     2     9    1
     3     9    10   ar
     4    10    11   ar
     5    11    12   ar
     6    12    20    1
     7    20    21    1
     8    20    22    1
     9    20    23    1
    10    12    13   ar
    11    13    14   ar
    12    14    15    1
    13    15    16   ar
    14    16    17   ar
    15    17    18   ar
    16    18    19   ar
    17     2     3   am
    18     3     4    1
    19     4     5    1
    20     5     6    1
    21     6     7    1
    22     7     8    1
    23     8    24    1
    24    24    25    1
    25    25    26   ar
    26    26    27   ar
    27    27    28   ar
    28    28    29   ar
    29    29    31    1
    30    31    32   ar
    31    32    33   ar
    32    33    34   ar
    33    34    35   ar
    34    29    30   ar
    35    14     9   ar
    36    19    15   ar
    37     8     3    1
    38    30    25   ar
    39    35    31   ar
@<TRIPOS>MOLECULE
*****
 35 39 0 0 0
SMALL
GASTEIGER

@<TRIPOS>ATOM
      1 O          63.5166   88.3318   11.8891 O.2     1  UNL1       -0.2699
      2 C          63.4646   87.6673   13.2329 C.2     1  UNL1        0.2506
      3 N          63.3790   88.4992   14.4781 N.am    1  UNL1       -0.2723
      4 C          63.3271   87.8347   15.8219 C.3     1  UNL1        0.1257
      5 C          63.2414   88.6667   17.0672 C.3     1  UNL1        0.1637
      6 O          63.2077   90.1630   16.9686 O.3     1  UNL1       -0.3502
      7 C          63.2597   90.8275   15.6248 C.3     1  UNL1        0.1622
      8 C          63.3453   89.9956   14.3796 C.3     1  UNL1        0.1096
      9 C          63.4983   86.1709   13.3314 C.ar    1  UNL1        0.0729
     10 C          64.2713   85.5091   14.4335 C.ar    1  UNL1        0.0060
     11 C          64.3051   84.0127   14.5320 C.ar    1  UNL1        0.0041
     12 C          63.5658   83.1782   13.5286 C.ar    1  UNL1        0.0730
     13 C          62.7928   83.8400   12.4265 C.ar    1  UNL1        0.0249
     14 C          62.7591   85.3364   12.3280 C.ar    1  UNL1        0.1072
     15 N          61.9861   85.9982   11.2259 N.ar    1  UNL1       -0.1477
     16 N          60.7895   86.8861   11.3983 N.ar    1  UNL1       -0.1447
     17 C          60.3379   87.3249   10.0369 C.ar    1  UNL1        0.1446
     18 C          61.2554   86.7083    9.0231 C.ar    1  UNL1        0.1446
     19 N          62.2740   85.8883    9.7579 N.ar    1  UNL1       -0.1447
     20 C          63.5995   81.6818   13.6271 C.3     1  UNL1        0.4186
     21 F          63.6333   80.1854   13.7256 F       1  UNL1       -0.1659
     22 F          64.7682   81.6463   12.6876 F       1  UNL1       -0.1659
     23 F          62.4308   81.7172   14.5666 F       1  UNL1       -0.1659
     24 C          63.3972   90.6601   13.0358 C.3     1  UNL1        0.0487
     25 C          64.5724   91.5163   12.6674 C.ar    1  UNL1       -0.0203
     26 C          64.7502   91.9767   11.2510 C.ar    1  UNL1       -0.0042
     27 C          65.9254   92.8330   10.8825 C.ar    1  UNL1       -0.0002
     28 C          66.9229   93.2289   11.9306 C.ar    1  UNL1        0.0031
     29 C          66.7450   92.7684   13.3471 C.ar    1  UNL1        0.0388
     30 C          65.5698   91.9122   13.7155 C.ar    1  UNL1       -0.0011
     31 C          67.7424   93.1643   14.3952 C.ar    1  UNL1        0.2037
     32 N          69.1880   92.7656   14.4320 N.ar    1  UNL1       -0.1829
     33 C          69.8084   93.3832   15.6500 C.ar    1  UNL1        0.3164
     34 O          68.7462   94.1637   16.3661 O.2     1  UNL1       -0.3274
     35 N          67.4694   94.0284   15.5906 N.ar    1  UNL1       -0.0554
@<TRIPOS>BOND
     1     1     2    2
     2     2     9    1
     3     9    10   ar
     4    10    11   ar
     5    11    12   ar
     6    12    20    1
     7    20    21    1
     8    20    22    1
     9    20    23    1
    10    12    13   ar
    11    13    14   ar
    12    14    15    1
    13    15    16   ar
    14    16    17   ar
    15    17    18   ar
    16    18    19   ar
    17     2     3   am
    18     3     4    1
    19     4     5    1
    20     5     6    1
    21     6     7    1
    22     7     8    1
    23     8    24    1
    24    24    25    1
    25    25    26   ar
    26    26    27   ar
    27    27    28   ar
    28    28    29   ar
    29    29    31    1
    30    31    32   ar
    31    32    33   ar
    32    33    34   ar
    33    34    35   ar
    34    29    30   ar
    35    14     9   ar
    36    19    15   ar
    37     8     3    1
    38    30    25   ar
    39    35    31   ar
@<TRIPOS>MOLECULE
*****
 35 39 0 0 0
SMALL
GASTEIGER

@<TRIPOS>ATOM
      1 O          63.5004   88.6324   10.4416 O.2     1  UNL1       -0.2699
      2 C          62.3779   87.9583   11.1734 C.2     1  UNL1        0.2506
      3 N          61.1134   88.7109   11.4644 N.am    1  UNL1       -0.2723
      4 C          59.9909   88.0368   12.1963 C.3     1  UNL1        0.1257
      5 C          58.7264   88.7895   12.4873 C.3     1  UNL1        0.1637
      6 O          58.5845   90.2161   12.0464 O.3     1  UNL1       -0.3502
      7 C          59.7070   90.8902   11.3145 C.3     1  UNL1        0.1622
      8 C          60.9714   90.1376   11.0235 C.3     1  UNL1        0.1096
      9 C          62.5199   86.5315   11.6143 C.ar    1  UNL1        0.0729
     10 C          63.1730   86.2136   12.9267 C.ar    1  UNL1        0.0060
     11 C          63.3150   84.7869   13.3675 C.ar    1  UNL1        0.0041
     12 C          62.8039   83.6782   12.4960 C.ar    1  UNL1        0.0730
     13 C          62.1508   83.9962   11.1837 C.ar    1  UNL1        0.0249
     14 C          62.0088   85.4229   10.7428 C.ar    1  UNL1        0.1072
     15 N          61.3557   85.7408    9.4304 N.ar    1  UNL1       -0.1477
     16 N          60.0402   86.4377    9.2461 N.ar    1  UNL1       -0.1447
     17 C          59.7749   86.5453    7.7737 C.ar    1  UNL1        0.1446
     18 C          60.9264   85.9150    7.0479 C.ar    1  UNL1        0.1446
     19 N          61.9033   85.4178    8.0718 N.ar    1  UNL1       -0.1447
     20 C          62.9459   82.2515   12.9369 C.3     1  UNL1        0.4186
     21 F          63.0879   80.8248   13.3777 F       1  UNL1       -0.1659
     22 F          62.3550   81.7911   11.6374 F       1  UNL1       -0.1659
     23 F          63.5369   82.7118   14.2364 F       1  UNL1       -0.1659
     24 C          62.0939   90.8117   10.2917 C.3     1  UNL1        0.0487
     25 C          63.2853   91.3188   11.0489 C.ar    1  UNL1       -0.0203
     26 C          63.3955   91.0744   12.5247 C.ar    1  UNL1       -0.0042
     27 C          64.5870   91.5816   13.2820 C.ar    1  UNL1       -0.0002
     28 C          65.6681   92.3331   12.5634 C.ar    1  UNL1        0.0031
     29 C          65.5578   92.5774   11.0875 C.ar    1  UNL1        0.0388
     30 C          64.3664   92.0703   10.3303 C.ar    1  UNL1       -0.0011
     31 C          66.6390   93.3289   10.3689 C.ar    1  UNL1        0.2037
     32 N          66.4788   94.6407    9.6592 N.ar    1  UNL1       -0.1829
     33 C          67.8109   95.0231    9.0855 C.ar    1  UNL1        0.3164
     34 O          68.7944   93.9476    9.4405 O.2     1  UNL1       -0.3274
     35 N          68.0702   92.9005   10.2337 N.ar    1  UNL1       -0.0554
@<TRIPOS>BOND
     1     1     2    2
     2     2     9    1
     3     9    10   ar
     4    10    11   ar
     5    11    12   ar
     6    12    20    1
     7    20    21    1
     8    20    22    1
     9    20    23    1
    10    12    13   ar
    11    13    14   ar
    12    14    15    1
    13    15    16   ar
    14    16    17   ar
    15    17    18   ar
    16    18    19   ar
    17     2     3   am
    18     3     4    1
    19     4     5    1
    20     5     6    1
    21     6     7    1
    22     7     8    1
    23     8    24    1
    24    24    25    1
    25    25    26   ar
    26    26    27   ar
    27    27    28   ar
    28    28    29   ar
    29    29    31    1
    30    31    32   ar
    31    32    33   ar
    32    33    34   ar
    33    34    35   ar
    34    29    30   ar
    35    14     9   ar
    36    19    15   ar
    37     8     3    1
    38    30    25   ar
    39    35    31   ar
