@<TRIPOS>MOLECULE
*****
 38 42 0 0 0
SMALL
GASTEIGER

@<TRIPOS>ATOM
      1 C          61.9731   88.3988   11.1293 C.3     1  UNL1        0.0807
      2 C          63.6661   89.2254   12.9184 C.ar    1  UNL1        0.2211
      3 N          64.6747   90.2329   13.3851 N.ar    1  UNL1       -0.2119
      4 C          64.9989   91.4214   12.5293 C.ar    1  UNL1        0.0844
      5 C          66.0074   92.4289   12.9959 C.ar    1  UNL1        0.0197
      6 C          66.3315   93.6174   12.1401 C.ar    1  UNL1        0.0082
      7 C          65.6471   93.7984   10.8177 C.ar    1  UNL1        0.0347
      8 BR         65.9712   94.9869    9.9619 Br      1  UNL1       -0.0490
      9 C          64.6385   92.7909   10.3510 C.ar    1  UNL1        0.0082
     10 C          64.3144   91.6024   11.2068 C.ar    1  UNL1        0.0181
     11 C          63.3059   90.5949   10.7402 C.ar    1  UNL1        0.0023
     12 C          62.9817   89.4064   11.5960 C.ar    1  UNL1        0.0375
     13 C          64.3787   87.4753   14.7016 C.3     1  UNL1        0.2542
     14 O          63.3420   88.0369   13.7742 O.3     1  UNL1       -0.4563
     15 C          62.4303   87.1123   10.5082 C.ar    1  UNL1        0.0215
     16 C          62.8349   87.0788    9.0642 C.ar    1  UNL1       -0.0007
     17 C          63.2921   85.7922    8.4431 C.ar    1  UNL1        0.0030
     18 C          63.3446   84.5392    9.2660 C.ar    1  UNL1        0.0402
     19 C          62.9400   84.5727   10.7100 C.ar    1  UNL1        0.1761
     20 C          62.4828   85.8593   11.3311 C.ar    1  UNL1        0.1728
     21 O          62.1482   85.5872   12.7678 O.3     1  UNL1       -0.4349
     22 C          62.3986   84.1325   13.0346 C.3     1  UNL1        0.4294
     23 O          62.8879   83.5055   11.7628 O.3     1  UNL1       -0.4346
     24 C          60.5075   88.6779   11.2838 C.3     1  UNL1        0.1170
     25 O          60.7540   89.2083   12.6650 O.3     1  UNL1       -0.3819
     26 H          60.8916   88.4676   13.2760 H       1  UNL1        0.2107
     27 C          60.2609   88.1475    9.9026 C.ar    1  UNL1        0.0160
     28 C          59.9540   86.6931    9.7014 C.ar    1  UNL1        0.0007
     29 C          59.7074   86.1626    8.3201 C.ar    1  UNL1        0.0204
     30 C          59.7678   87.0866    7.1401 C.ar    1  UNL1        0.0984
     31 N          60.0748   88.5410    7.3412 N.ar    1  UNL1       -0.2484
     32 C          60.3213   89.0715    8.7224 C.ar    1  UNL1        0.0576
     33 C          60.5931   90.5376    8.5598 C.3     1  UNL1        0.0518
     34 C          59.0418   88.9569   11.4383 C.3     1  UNL1        0.0491
     35 C          58.5203   89.5415   12.7175 C.3     1  UNL1        0.0750
     36 N          57.9946   88.6396   13.7947 N.3     1  UNL1       -0.2702
     37 C          56.6794   87.9417   13.6129 C.3     1  UNL1        0.0897
     38 C          58.7841   88.4358   15.0537 C.3     1  UNL1        0.0897
@<TRIPOS>BOND
     1    13    14    1
     2    14     2    1
     3     2     3   ar
     4     3     4   ar
     5     4     5   ar
     6     5     6   ar
     7     6     7   ar
     8     7     8    1
     9     7     9   ar
    10     9    10   ar
    11    10    11   ar
    12    11    12   ar
    13    12     1    1
    14     1    15    1
    15    15    16   ar
    16    16    17   ar
    17    17    18   ar
    18    18    19   ar
    19    19    20   ar
    20    20    21    1
    21    21    22    1
    22    22    23    1
    23     1    24    1
    24    24    25    1
    25    24    34    1
    26    34    35    1
    27    35    36    1
    28    36    37    1
    29    36    38    1
    30    24    27    1
    31    27    28   ar
    32    28    29   ar
    33    29    30   ar
    34    30    31   ar
    35    31    32   ar
    36    32    33    1
    37    12     2   ar
    38    20    15   ar
    39    32    27   ar
    40    10     4   ar
    41    23    19    1
    42    25    26    1
@<TRIPOS>MOLECULE
*****
 38 42 0 0 0
SMALL
GASTEIGER

@<TRIPOS>ATOM
      1 C          61.9443   87.5910   10.8361 C.3     1  UNL1        0.0807
      2 C          63.3946   87.0265   12.9165 C.ar    1  UNL1        0.2211
      3 N          63.9481   86.0184   13.8795 N.ar    1  UNL1       -0.2119
      4 C          63.6046   84.5664   13.7251 C.ar    1  UNL1        0.0844
      5 C          64.1580   83.5582   14.6880 C.ar    1  UNL1        0.0197
      6 C          63.8145   82.1063   14.5336 C.ar    1  UNL1        0.0082
      7 C          62.9176   81.6625   13.4162 C.ar    1  UNL1        0.0347
      8 BR         62.5741   80.2106   13.2617 Br      1  UNL1       -0.0490
      9 C          62.3641   82.6707   12.4532 C.ar    1  UNL1        0.0082
     10 C          62.7076   84.1226   12.6076 C.ar    1  UNL1        0.0181
     11 C          62.1542   85.1308   11.6447 C.ar    1  UNL1        0.0023
     12 C          62.4977   86.5828   11.7991 C.ar    1  UNL1        0.0375
     13 C          64.2000   89.0028   14.3983 C.3     1  UNL1        0.2542
     14 O          63.7381   88.4785   13.0710 O.3     1  UNL1       -0.4563
     15 C          61.1372   87.1367    9.6562 C.ar    1  UNL1        0.0215
     16 C          59.7197   87.6000    9.4940 C.ar    1  UNL1       -0.0007
     17 C          58.9126   87.1457    8.3140 C.ar    1  UNL1        0.0030
     18 C          59.5230   86.2282    7.2963 C.ar    1  UNL1        0.0402
     19 C          60.9404   85.7649    7.4586 C.ar    1  UNL1        0.1761
     20 C          61.7475   86.2192    8.6385 C.ar    1  UNL1        0.1728
     21 O          63.1103   85.6014    8.5333 O.3     1  UNL1       -0.4349
     22 C          63.1455   84.7653    7.2885 C.3     1  UNL1        0.4294
     23 O          61.8044   84.8664    6.6242 O.3     1  UNL1       -0.4346
     24 C          62.1980   89.0533   11.0530 C.3     1  UNL1        0.1170
     25 O          63.5482   88.9138   10.4147 O.3     1  UNL1       -0.3819
     26 H          64.1612   88.4997   11.0421 H       1  UNL1        0.2107
     27 C          60.8478   89.1928   11.6913 C.ar    1  UNL1        0.0160
     28 C          60.5729   88.5419   13.0145 C.ar    1  UNL1        0.0007
     29 C          59.2226   88.6814   13.6528 C.ar    1  UNL1        0.0204
     30 C          58.1474   89.4719   12.9680 C.ar    1  UNL1        0.0984
     31 N          58.4223   90.1229   11.6449 N.ar    1  UNL1       -0.2484
     32 C          59.7725   89.9834   11.0066 C.ar    1  UNL1        0.0576
     33 C          59.7005   90.7449    9.7163 C.3     1  UNL1        0.0518
     34 C          62.4517   90.5157   11.2699 C.3     1  UNL1        0.0491
     35 C          63.5139   91.2182   10.4775 C.3     1  UNL1        0.0750
     36 N          64.6290   91.9306   11.1841 N.3     1  UNL1       -0.2702
     37 C          64.7332   91.8639   12.6790 C.3     1  UNL1        0.0897
     38 C          65.6398   92.7097   10.3959 C.3     1  UNL1        0.0897
@<TRIPOS>BOND
     1    13    14    1
     2    14     2    1
     3     2     3   ar
     4     3     4   ar
     5     4     5   ar
     6     5     6   ar
     7     6     7   ar
     8     7     8    1
     9     7     9   ar
    10     9    10   ar
    11    10    11   ar
    12    11    12   ar
    13    12     1    1
    14     1    15    1
    15    15    16   ar
    16    16    17   ar
    17    17    18   ar
    18    18    19   ar
    19    19    20   ar
    20    20    21    1
    21    21    22    1
    22    22    23    1
    23     1    24    1
    24    24    25    1
    25    24    34    1
    26    34    35    1
    27    35    36    1
    28    36    37    1
    29    36    38    1
    30    24    27    1
    31    27    28   ar
    32    28    29   ar
    33    29    30   ar
    34    30    31   ar
    35    31    32   ar
    36    32    33    1
    37    12     2   ar
    38    20    15   ar
    39    32    27   ar
    40    10     4   ar
    41    23    19    1
    42    25    26    1
@<TRIPOS>MOLECULE
*****
 38 42 0 0 0
SMALL
GASTEIGER

@<TRIPOS>ATOM
      1 C          61.8485   94.6819   -2.4802 C.3     1  UNL1        0.0807
      2 C          59.9216   93.2320   -1.5133 C.ar    1  UNL1        0.2211
      3 N          58.4570   92.9316   -1.3920 N.ar    1  UNL1       -0.2119
      4 C          57.4547   93.7807   -2.1162 C.ar    1  UNL1        0.0844
      5 C          55.9901   93.4803   -1.9948 C.ar    1  UNL1        0.0197
      6 C          54.9878   94.3295   -2.7190 C.ar    1  UNL1        0.0082
      7 C          55.4501   95.4790   -3.5645 C.ar    1  UNL1        0.0347
      8 BR         54.4478   96.3281   -4.2886 Br      1  UNL1       -0.0490
      9 C          56.9148   95.7794   -3.6858 C.ar    1  UNL1        0.0082
     10 C          57.9171   94.9303   -2.9617 C.ar    1  UNL1        0.0181
     11 C          59.3816   95.2306   -3.0830 C.ar    1  UNL1        0.0023
     12 C          60.3839   94.3815   -2.3588 C.ar    1  UNL1        0.0375
     13 C          60.7485   92.0980    0.6731 C.3     1  UNL1        0.2542
     14 O          60.9239   92.3829   -0.7892 O.3     1  UNL1       -0.4563
     15 C          62.6928   93.9166   -3.4555 C.ar    1  UNL1        0.0215
     16 C          63.8690   93.1232   -2.9683 C.ar    1  UNL1       -0.0007
     17 C          64.7133   92.3578   -3.9437 C.ar    1  UNL1        0.0030
     18 C          64.3814   92.3858   -5.4063 C.ar    1  UNL1        0.0402
     19 C          63.2053   93.1791   -5.8934 C.ar    1  UNL1        0.1761
     20 C          62.3610   93.9445   -4.9181 C.ar    1  UNL1        0.1728
     21 O          61.2721   94.6319   -5.6873 O.3     1  UNL1       -0.4349
     22 C          61.4434   94.2915   -7.1381 C.3     1  UNL1        0.4294
     23 O          62.6382   93.3935   -7.2654 O.3     1  UNL1       -0.4346
     24 C          62.4688   95.7477   -1.6262 C.3     1  UNL1        0.1170
     25 O          61.5506   95.3789   -0.4989 O.3     1  UNL1       -0.3819
     26 H          60.6661   95.7376   -0.6718 H       1  UNL1        0.2107
     27 C          63.3871   96.1165   -2.7534 C.ar    1  UNL1        0.0160
     28 C          62.8203   96.4861   -4.0922 C.ar    1  UNL1        0.0007
     29 C          63.7387   96.8550   -5.2194 C.ar    1  UNL1        0.0204
     30 C          65.2237   96.8542   -5.0079 C.ar    1  UNL1        0.0984
     31 N          65.7904   96.4846   -3.6692 N.ar    1  UNL1       -0.2484
     32 C          64.8721   96.1158   -2.5420 C.ar    1  UNL1        0.0576
     33 C          65.7577   95.8086   -1.3709 C.3     1  UNL1        0.0518
     34 C          63.0891   96.8135   -0.7722 C.3     1  UNL1        0.0491
     35 C          62.8919   96.7924    0.7146 C.3     1  UNL1        0.0750
     36 N          63.8739   96.0733    1.5913 N.3     1  UNL1       -0.2702
     37 C          63.9050   94.5737    1.6097 C.3     1  UNL1        0.0897
     38 C          64.8248   96.8537    2.4496 C.3     1  UNL1        0.0897
@<TRIPOS>BOND
     1    13    14    1
     2    14     2    1
     3     2     3   ar
     4     3     4   ar
     5     4     5   ar
     6     5     6   ar
     7     6     7   ar
     8     7     8    1
     9     7     9   ar
    10     9    10   ar
    11    10    11   ar
    12    11    12   ar
    13    12     1    1
    14     1    15    1
    15    15    16   ar
    16    16    17   ar
    17    17    18   ar
    18    18    19   ar
    19    19    20   ar
    20    20    21    1
    21    21    22    1
    22    22    23    1
    23     1    24    1
    24    24    25    1
    25    24    34    1
    26    34    35    1
    27    35    36    1
    28    36    37    1
    29    36    38    1
    30    24    27    1
    31    27    28   ar
    32    28    29   ar
    33    29    30   ar
    34    30    31   ar
    35    31    32   ar
    36    32    33    1
    37    12     2   ar
    38    20    15   ar
    39    32    27   ar
    40    10     4   ar
    41    23    19    1
    42    25    26    1
@<TRIPOS>MOLECULE
*****
 38 42 0 0 0
SMALL
GASTEIGER

@<TRIPOS>ATOM
      1 C          63.1419   88.6409   12.1795 C.3     1  UNL1        0.0807
      2 C          60.7667   88.6138   11.1270 C.ar    1  UNL1        0.2211
      3 N          59.8153   88.1150   10.0799 N.ar    1  UNL1       -0.2119
      4 C          60.2880   87.1447    9.0383 C.ar    1  UNL1        0.0844
      5 C          59.3367   86.6460    7.9912 C.ar    1  UNL1        0.0197
      6 C          59.8094   85.6756    6.9496 C.ar    1  UNL1        0.0082
      7 C          61.2333   85.2040    6.9550 C.ar    1  UNL1        0.0347
      8 BR         61.7059   84.2337    5.9133 Br      1  UNL1       -0.0490
      9 C          62.1846   85.7028    8.0020 C.ar    1  UNL1        0.0082
     10 C          61.7120   86.6731    9.0437 C.ar    1  UNL1        0.0181
     11 C          62.6632   87.1719   10.0907 C.ar    1  UNL1        0.0023
     12 C          62.1906   88.1422   11.1324 C.ar    1  UNL1        0.0375
     13 C          59.1232   90.4779   11.8848 C.3     1  UNL1        0.2542
     14 O          60.2940   89.5841   12.1687 O.3     1  UNL1       -0.4563
     15 C          63.6973   87.6931   13.2008 C.ar    1  UNL1        0.0215
     16 C          64.6770   88.1840   14.2251 C.ar    1  UNL1       -0.0007
     17 C          65.2324   87.2361   15.2464 C.ar    1  UNL1        0.0030
     18 C          64.8080   85.7973   15.2434 C.ar    1  UNL1        0.0402
     19 C          63.8283   85.3065   14.2191 C.ar    1  UNL1        0.1761
     20 C          63.2729   86.2544   13.1978 C.ar    1  UNL1        0.1728
     21 O          62.3303   85.4877   12.3181 O.3     1  UNL1       -0.4349
     22 C          62.3031   84.0661   12.7958 C.3     1  UNL1        0.4294
     23 O          63.2289   83.9541   13.9706 O.3     1  UNL1       -0.4346
     24 C          63.5378   90.0875   12.2052 C.3     1  UNL1        0.1170
     25 O          63.7015   90.0692   10.7143 O.3     1  UNL1       -0.3819
     26 H          64.5347   89.6282   10.4859 H       1  UNL1        0.2107
     27 C          63.3741   90.1058   13.6961 C.ar    1  UNL1        0.0160
     28 C          62.1524   89.5031   14.3239 C.ar    1  UNL1        0.0007
     29 C          61.9887   89.5214   15.8149 C.ar    1  UNL1        0.0204
     30 C          63.0467   90.1424   16.6779 C.ar    1  UNL1        0.0984
     31 N          64.2684   90.7452   16.0501 N.ar    1  UNL1       -0.2484
     32 C          64.4321   90.7269   14.5592 C.ar    1  UNL1        0.0576
     33 C          65.7424   91.4010   14.2789 C.3     1  UNL1        0.0518
     34 C          63.9337   91.5340   12.2309 C.3     1  UNL1        0.0491
     35 C          64.5260   92.1714   11.0090 C.3     1  UNL1        0.0750
     36 N          65.8382   92.8924   11.1004 N.3     1  UNL1       -0.2702
     37 C          67.0149   92.4122   10.3038 C.3     1  UNL1        0.0897
     38 C          65.9736   94.0937   11.9885 C.3     1  UNL1        0.0897
@<TRIPOS>BOND
     1    13    14    1
     2    14     2    1
     3     2     3   ar
     4     3     4   ar
     5     4     5   ar
     6     5     6   ar
     7     6     7   ar
     8     7     8    1
     9     7     9   ar
    10     9    10   ar
    11    10    11   ar
    12    11    12   ar
    13    12     1    1
    14     1    15    1
    15    15    16   ar
    16    16    17   ar
    17    17    18   ar
    18    18    19   ar
    19    19    20   ar
    20    20    21    1
    21    21    22    1
    22    22    23    1
    23     1    24    1
    24    24    25    1
    25    24    34    1
    26    34    35    1
    27    35    36    1
    28    36    37    1
    29    36    38    1
    30    24    27    1
    31    27    28   ar
    32    28    29   ar
    33    29    30   ar
    34    30    31   ar
    35    31    32   ar
    36    32    33    1
    37    12     2   ar
    38    20    15   ar
    39    32    27   ar
    40    10     4   ar
    41    23    19    1
    42    25    26    1
@<TRIPOS>MOLECULE
*****
 38 42 0 0 0
SMALL
GASTEIGER

@<TRIPOS>ATOM
      1 C          63.0636   88.1905   11.8546 C.3     1  UNL1        0.0807
      2 C          63.3972   90.2771   13.3661 C.ar    1  UNL1        0.2211
      3 N          63.9645   91.6493   13.5796 N.ar    1  UNL1       -0.2119
      4 C          64.7656   92.3067   12.4951 C.ar    1  UNL1        0.0844
      5 C          65.3329   93.6788   12.7086 C.ar    1  UNL1        0.0197
      6 C          66.1339   94.3362   11.6241 C.ar    1  UNL1        0.0082
      7 C          66.3676   93.6217   10.3262 C.ar    1  UNL1        0.0347
      8 BR         67.1686   94.2791    9.2417 Br      1  UNL1       -0.0490
      9 C          65.8002   92.2495   10.1126 C.ar    1  UNL1        0.0082
     10 C          64.9992   91.5921   11.1971 C.ar    1  UNL1        0.0181
     11 C          64.4319   90.2200   10.9837 C.ar    1  UNL1        0.0023
     12 C          63.6309   89.5626   12.0682 C.ar    1  UNL1        0.0375
     13 C          62.8809   89.9348   15.8893 C.3     1  UNL1        0.2542
     14 O          62.5962   89.6197   14.4506 O.3     1  UNL1       -0.4563
     15 C          63.3147   87.1096   12.8640 C.ar    1  UNL1        0.0215
     16 C          63.9535   87.4453   14.1790 C.ar    1  UNL1       -0.0007
     17 C          64.2047   86.3645   15.1884 C.ar    1  UNL1        0.0030
     18 C          63.8171   84.9480   14.8826 C.ar    1  UNL1        0.0402
     19 C          63.1784   84.6124   13.5676 C.ar    1  UNL1        0.1761
     20 C          62.9272   85.6932   12.5583 C.ar    1  UNL1        0.1728
     21 O          62.2860   85.0651   11.3564 O.3     1  UNL1       -0.4349
     22 C          62.1409   83.5962   11.6229 C.3     1  UNL1        0.4294
     23 O          62.6924   83.3164   12.9895 O.3     1  UNL1       -0.4346
     24 C          62.2451   87.8992   10.6318 C.3     1  UNL1        0.1170
     25 O          63.3522   87.0412   10.0952 O.3     1  UNL1       -0.3819
     26 H          64.0584   87.6064    9.7446 H       1  UNL1        0.2107
     27 C          61.1380   88.7572   11.1685 C.ar    1  UNL1        0.0160
     28 C          60.2034   88.2125   12.2077 C.ar    1  UNL1        0.0007
     29 C          59.0963   89.0706   12.7444 C.ar    1  UNL1        0.0204
     30 C          58.9237   90.4733   12.2419 C.ar    1  UNL1        0.0984
     31 N          59.8583   91.0180   11.2027 N.ar    1  UNL1       -0.2484
     32 C          60.9654   90.1600   10.6660 C.ar    1  UNL1        0.0576
     33 C          61.6934   91.0043    9.6625 C.3     1  UNL1        0.0518
     34 C          61.4267   87.6080    9.4090 C.3     1  UNL1        0.0491
     35 C          61.7420   86.4100    8.5633 C.3     1  UNL1        0.0750
     36 N          60.7285   85.8951    7.5846 N.3     1  UNL1       -0.2702
     37 C          61.1129   84.8360    6.5943 C.3     1  UNL1        0.0897
     38 C          59.3308   86.4392    7.5963 C.3     1  UNL1        0.0897
@<TRIPOS>BOND
     1    13    14    1
     2    14     2    1
     3     2     3   ar
     4     3     4   ar
     5     4     5   ar
     6     5     6   ar
     7     6     7   ar
     8     7     8    1
     9     7     9   ar
    10     9    10   ar
    11    10    11   ar
    12    11    12   ar
    13    12     1    1
    14     1    15    1
    15    15    16   ar
    16    16    17   ar
    17    17    18   ar
    18    18    19   ar
    19    19    20   ar
    20    20    21    1
    21    21    22    1
    22    22    23    1
    23     1    24    1
    24    24    25    1
    25    24    34    1
    26    34    35    1
    27    35    36    1
    28    36    37    1
    29    36    38    1
    30    24    27    1
    31    27    28   ar
    32    28    29   ar
    33    29    30   ar
    34    30    31   ar
    35    31    32   ar
    36    32    33    1
    37    12     2   ar
    38    20    15   ar
    39    32    27   ar
    40    10     4   ar
    41    23    19    1
    42    25    26    1
@<TRIPOS>MOLECULE
*****
 38 42 0 0 0
SMALL
GASTEIGER

@<TRIPOS>ATOM
      1 C          62.6273   85.8893   12.4774 C.3     1  UNL1        0.0807
      2 C          63.8055   87.0625   14.4738 C.ar    1  UNL1        0.2211
      3 N          64.4772   88.2695   15.0588 N.ar    1  UNL1       -0.2119
      4 C          64.6424   89.5102   14.2322 C.ar    1  UNL1        0.0844
      5 C          65.3141   90.7172   14.8171 C.ar    1  UNL1        0.0197
      6 C          65.4792   91.9579   13.9905 C.ar    1  UNL1        0.0082
      7 C          64.9727   91.9918   12.5791 C.ar    1  UNL1        0.0347
      8 BR         65.1379   93.2325   11.7525 Br      1  UNL1       -0.0490
      9 C          64.3010   90.7848   11.9941 C.ar    1  UNL1        0.0082
     10 C          64.1359   89.5440   12.8207 C.ar    1  UNL1        0.0181
     11 C          63.4642   88.3371   12.2358 C.ar    1  UNL1        0.0023
     12 C          63.2990   87.0963   13.0624 C.ar    1  UNL1        0.0375
     13 C          63.4053   85.9306   16.7779 C.3     1  UNL1        0.2542
     14 O          63.6404   85.8217   15.3004 O.3     1  UNL1       -0.4563
     15 C          62.4271   85.7875   10.9943 C.ar    1  UNL1        0.0215
     16 C          63.3874   84.9917   10.1608 C.ar    1  UNL1       -0.0007
     17 C          63.1871   84.8898    8.6777 C.ar    1  UNL1        0.0030
     18 C          62.0266   85.5837    8.0282 C.ar    1  UNL1        0.0402
     19 C          61.0664   86.3794    8.8617 C.ar    1  UNL1        0.1761
     20 C          61.2667   86.4813   10.3448 C.ar    1  UNL1        0.1728
     21 O          60.1641   87.3307   10.9041 O.3     1  UNL1       -0.4349
     22 C          59.2824   87.7539    9.7667 C.3     1  UNL1        0.4294
     23 O          59.8401   87.1659    8.5045 O.3     1  UNL1       -0.4346
     24 C          62.1559   84.7843   13.3755 C.3     1  UNL1        0.1170
     25 O          61.3695   85.7751   14.1817 O.3     1  UNL1       -0.3819
     26 H          61.9703   86.2719   14.7588 H       1  UNL1        0.2107
     27 C          62.9423   83.7936   12.5694 C.ar    1  UNL1        0.0160
     28 C          62.2528   82.9492   11.5391 C.ar    1  UNL1        0.0007
     29 C          63.0393   81.9584   10.7329 C.ar    1  UNL1        0.0204
     30 C          64.5152   81.8121   10.9570 C.ar    1  UNL1        0.0984
     31 N          65.2047   82.6565   11.9873 N.ar    1  UNL1       -0.2484
     32 C          64.4183   83.6473   12.7935 C.ar    1  UNL1        0.0576
     33 C          65.4033   84.3078   13.7118 C.3     1  UNL1        0.0518
     34 C          61.6845   83.6793   14.2736 C.3     1  UNL1        0.0491
     35 C          62.6002   82.5376   14.6021 C.3     1  UNL1        0.0750
     36 N          62.2021   81.1334   14.2558 N.3     1  UNL1       -0.2702
     37 C          60.7508   80.7604   14.1875 C.3     1  UNL1        0.0897
     38 C          63.2553   80.1022   13.9778 C.3     1  UNL1        0.0897
@<TRIPOS>BOND
     1    13    14    1
     2    14     2    1
     3     2     3   ar
     4     3     4   ar
     5     4     5   ar
     6     5     6   ar
     7     6     7   ar
     8     7     8    1
     9     7     9   ar
    10     9    10   ar
    11    10    11   ar
    12    11    12   ar
    13    12     1    1
    14     1    15    1
    15    15    16   ar
    16    16    17   ar
    17    17    18   ar
    18    18    19   ar
    19    19    20   ar
    20    20    21    1
    21    21    22    1
    22    22    23    1
    23     1    24    1
    24    24    25    1
    25    24    34    1
    26    34    35    1
    27    35    36    1
    28    36    37    1
    29    36    38    1
    30    24    27    1
    31    27    28   ar
    32    28    29   ar
    33    29    30   ar
    34    30    31   ar
    35    31    32   ar
    36    32    33    1
    37    12     2   ar
    38    20    15   ar
    39    32    27   ar
    40    10     4   ar
    41    23    19    1
    42    25    26    1
@<TRIPOS>MOLECULE
*****
 38 42 0 0 0
SMALL
GASTEIGER

@<TRIPOS>ATOM
      1 C          62.7099   86.8339   11.9893 C.3     1  UNL1        0.0807
      2 C          63.9243   87.9166   14.0149 C.ar    1  UNL1        0.2211
      3 N          64.6465   89.0807   14.6259 N.ar    1  UNL1       -0.2119
      4 C          64.8764   90.3262   13.8223 C.ar    1  UNL1        0.0844
      5 C          65.5986   91.4903   14.4333 C.ar    1  UNL1        0.0197
      6 C          65.8285   92.7359   13.6297 C.ar    1  UNL1        0.0082
      7 C          65.3363   92.8173   12.2151 C.ar    1  UNL1        0.0347
      8 BR         65.5662   94.0629   11.4116 Br      1  UNL1       -0.0490
      9 C          64.6141   91.6532   11.6041 C.ar    1  UNL1        0.0082
     10 C          64.3842   90.4077   12.4077 C.ar    1  UNL1        0.0181
     11 C          63.6620   89.2436   11.7967 C.ar    1  UNL1        0.0023
     12 C          63.4321   87.9980   12.6003 C.ar    1  UNL1        0.0375
     13 C          64.8632   85.8788   15.3248 C.3     1  UNL1        0.2542
     14 O          63.6944   86.6710   14.8184 O.3     1  UNL1       -0.4563
     15 C          62.5755   85.5499   12.7531 C.ar    1  UNL1        0.0215
     16 C          61.7498   85.5046   14.0046 C.ar    1  UNL1       -0.0007
     17 C          61.6155   84.2207   14.7684 C.ar    1  UNL1        0.0030
     18 C          62.3068   82.9820   14.2807 C.ar    1  UNL1        0.0402
     19 C          63.1325   83.0273   13.0292 C.ar    1  UNL1        0.1761
     20 C          63.2668   84.3113   12.2654 C.ar    1  UNL1        0.1728
     21 O          64.1413   84.0528   11.0744 O.3     1  UNL1       -0.4349
     22 C          64.5474   82.6091   11.1021 C.3     1  UNL1        0.4294
     23 O          63.9239   81.9754   12.3102 O.3     1  UNL1       -0.4346
     24 C          62.1220   86.9538   10.6145 C.3     1  UNL1        0.1170
     25 O          63.0653   85.8980   10.1191 O.3     1  UNL1       -0.3819
     26 H          63.9485   86.2820   10.0033 H       1  UNL1        0.2107
     27 C          61.1787   88.0096   11.1099 C.ar    1  UNL1        0.0160
     28 C          60.1805   87.6810   12.1802 C.ar    1  UNL1        0.0007
     29 C          59.2371   88.7369   12.6756 C.ar    1  UNL1        0.0204
     30 C          59.2921   90.1212   12.1007 C.ar    1  UNL1        0.0984
     31 N          60.2904   90.4498   11.0304 N.ar    1  UNL1       -0.2484
     32 C          61.2337   89.3940   10.5350 C.ar    1  UNL1        0.0576
     33 C          62.0782   90.0536    9.4854 C.3     1  UNL1        0.0518
     34 C          61.5342   87.0736    9.2397 C.3     1  UNL1        0.0491
     35 C          61.8456   86.0402    8.1981 C.3     1  UNL1        0.0750
     36 N          60.7662   85.5557    7.2760 N.3     1  UNL1       -0.2702
     37 C          59.3857   86.1353    7.3674 C.3     1  UNL1        0.0897
     38 C          61.0673   84.4918    6.2624 C.3     1  UNL1        0.0897
@<TRIPOS>BOND
     1    13    14    1
     2    14     2    1
     3     2     3   ar
     4     3     4   ar
     5     4     5   ar
     6     5     6   ar
     7     6     7   ar
     8     7     8    1
     9     7     9   ar
    10     9    10   ar
    11    10    11   ar
    12    11    12   ar
    13    12     1    1
    14     1    15    1
    15    15    16   ar
    16    16    17   ar
    17    17    18   ar
    18    18    19   ar
    19    19    20   ar
    20    20    21    1
    21    21    22    1
    22    22    23    1
    23     1    24    1
    24    24    25    1
    25    24    34    1
    26    34    35    1
    27    35    36    1
    28    36    37    1
    29    36    38    1
    30    24    27    1
    31    27    28   ar
    32    28    29   ar
    33    29    30   ar
    34    30    31   ar
    35    31    32   ar
    36    32    33    1
    37    12     2   ar
    38    20    15   ar
    39    32    27   ar
    40    10     4   ar
    41    23    19    1
    42    25    26    1
@<TRIPOS>MOLECULE
*****
 38 42 0 0 0
SMALL
GASTEIGER

@<TRIPOS>ATOM
      1 C          62.8870   89.6245   12.4846 C.3     1  UNL1        0.0807
      2 C          64.1290   91.5464   13.7150 C.ar    1  UNL1        0.2211
      3 N          65.0389   92.7384   13.6777 N.ar    1  UNL1       -0.2119
      4 C          65.6164   93.2005   12.3728 C.ar    1  UNL1        0.0844
      5 C          66.5262   94.3925   12.3355 C.ar    1  UNL1        0.0197
      6 C          67.1038   94.8546   11.0305 C.ar    1  UNL1        0.0082
      7 C          66.7716   94.1248    9.7629 C.ar    1  UNL1        0.0347
      8 BR         67.3492   94.5869    8.4580 Br      1  UNL1       -0.0490
      9 C          65.8618   92.9327    9.8002 C.ar    1  UNL1        0.0082
     10 C          65.2842   92.4706   11.1051 C.ar    1  UNL1        0.0181
     11 C          64.3744   91.2786   11.1424 C.ar    1  UNL1        0.0023
     12 C          63.7968   90.8165   12.4474 C.ar    1  UNL1        0.0375
     13 C          64.1404   91.5652   16.3130 C.3     1  UNL1        0.2542
     14 O          63.5514   91.0843   15.0199 O.3     1  UNL1       -0.4563
     15 C          61.4535   89.7617   12.0647 C.ar    1  UNL1        0.0215
     16 C          61.1192   90.2445   10.6844 C.ar    1  UNL1       -0.0007
     17 C          59.6858   90.3818   10.2646 C.ar    1  UNL1        0.0030
     18 C          58.5866   90.0361   11.2250 C.ar    1  UNL1        0.0402
     19 C          58.9209   89.5533   12.6052 C.ar    1  UNL1        0.1761
     20 C          60.3543   89.4161   13.0251 C.ar    1  UNL1        0.1728
     21 O          60.3773   88.9188   14.4401 O.3     1  UNL1       -0.4349
     22 C          58.9580   88.7486   14.8947 C.3     1  UNL1        0.4294
     23 O          58.0579   89.1408   13.7607 O.3     1  UNL1       -0.4346
     24 C          63.4107   88.2953   12.9418 C.3     1  UNL1        0.1170
     25 O          63.9580   88.9374   14.1819 O.3     1  UNL1       -0.3819
     26 H          64.7713   89.4193   13.9645 H       1  UNL1        0.2107
     27 C          62.8633   87.6531   11.7016 C.ar    1  UNL1        0.0160
     28 C          62.8864   88.3969   10.3992 C.ar    1  UNL1        0.0007
     29 C          62.3391   87.7546    9.1590 C.ar    1  UNL1        0.0204
     30 C          61.7686   86.3688    9.2213 C.ar    1  UNL1        0.0984
     31 N          61.7455   85.6250   10.5237 N.ar    1  UNL1       -0.2484
     32 C          62.2929   86.2672   11.7638 C.ar    1  UNL1        0.0576
     33 C          62.1143   85.2623   12.8630 C.3     1  UNL1        0.0518
     34 C          63.9343   86.9661   13.3989 C.3     1  UNL1        0.0491
     35 C          64.4889   86.8147   14.7843 C.3     1  UNL1        0.0750
     36 N          63.5681   86.5306   15.9339 N.3     1  UNL1       -0.2702
     37 C          63.1243   87.6464   16.8328 C.3     1  UNL1        0.0897
     38 C          63.0910   85.1308   16.1845 C.3     1  UNL1        0.0897
@<TRIPOS>BOND
     1    13    14    1
     2    14     2    1
     3     2     3   ar
     4     3     4   ar
     5     4     5   ar
     6     5     6   ar
     7     6     7   ar
     8     7     8    1
     9     7     9   ar
    10     9    10   ar
    11    10    11   ar
    12    11    12   ar
    13    12     1    1
    14     1    15    1
    15    15    16   ar
    16    16    17   ar
    17    17    18   ar
    18    18    19   ar
    19    19    20   ar
    20    20    21    1
    21    21    22    1
    22    22    23    1
    23     1    24    1
    24    24    25    1
    25    24    34    1
    26    34    35    1
    27    35    36    1
    28    36    37    1
    29    36    38    1
    30    24    27    1
    31    27    28   ar
    32    28    29   ar
    33    29    30   ar
    34    30    31   ar
    35    31    32   ar
    36    32    33    1
    37    12     2   ar
    38    20    15   ar
    39    32    27   ar
    40    10     4   ar
    41    23    19    1
    42    25    26    1
