@<TRIPOS>MOLECULE
*****
 32 36 0 0 0
SMALL
GASTEIGER

@<TRIPOS>ATOM
      1 N          66.0518   92.6611   12.0097 N.3     1  UNL1       -0.2692
      2 C          66.7915   92.9851   10.7457 C.3     1  UNL1        0.0978
      3 C          67.8005   92.0194   10.1986 C.3     1  UNL1        0.0224
      4 C          68.5402   92.3434    8.9345 C.3     1  UNL1        0.0065
      5 C          68.2709   93.6331    8.2175 C.3     1  UNL1        0.0277
      6 C          67.2620   94.5988    8.7646 C.ar    1  UNL1       -0.0073
      7 C          66.9927   95.8886    8.0476 C.ar    1  UNL1       -0.0015
      8 C          65.9838   96.8543    8.5947 C.ar    1  UNL1        0.0203
      9 C          65.2441   96.5303    9.8588 C.ar    1  UNL1        0.0985
     10 N          65.5133   95.2406   10.5758 N.ar    1  UNL1       -0.2471
     11 C          66.5223   94.2748   10.0287 C.ar    1  UNL1        0.0695
     12 N          69.0570   92.0137   17.1623 N.3     1  UNL1       -0.3222
     13 C          68.3057   92.1755   15.8742 C.3     1  UNL1        0.0509
     14 C          68.9999   91.9370   14.5660 C.3     1  UNL1        0.0169
     15 C          68.2486   92.0988   13.2779 C.3     1  UNL1        0.0173
     16 C          66.8031   92.4993   13.2979 C.3     1  UNL1        0.0579
     17 C          66.1090   92.7378   14.6060 C.3     1  UNL1        0.0173
     18 C          66.8603   92.5760   15.8942 C.3     1  UNL1        0.0169
     19 H          70.0193   91.7405   16.9627 H       1  UNL1        0.1188
     20 H          68.6095   91.2930   17.7287 H       1  UNL1        0.1188
     21 C          64.5608   92.4990   11.9857 C.3     1  UNL1        0.0885
     22 C          63.9570   91.1311   11.8650 C.3     1  UNL1        0.0748
     23 C          63.0886   90.7958   10.6888 C.3     1  UNL1        0.0432
     24 C          62.4848   89.4279   10.5681 C.ar    1  UNL1       -0.0234
     25 C          61.6164   89.0926    9.3920 C.ar    1  UNL1       -0.0045
     26 C          61.0126   87.7248    9.2714 C.ar    1  UNL1       -0.0003
     27 C          61.2772   86.6924   10.3269 C.ar    1  UNL1       -0.0003
     28 C          62.1455   87.0278   11.5031 C.ar    1  UNL1       -0.0032
     29 C          62.7493   88.3955   11.6237 C.ar    1  UNL1       -0.0103
     30 C          63.6178   88.7310   12.7999 C.3     1  UNL1        0.0953
     31 N          64.2216   90.0987   12.9205 N.3     1  UNL1       -0.2934
     32 H          65.2328   89.9716   12.9612 H       1  UNL1        0.1236
@<TRIPOS>BOND
     1    13    12    1
     2    13    14    1
     3    14    15    1
     4    15    16    1
     5    16     1    1
     6     1    21    1
     7    22    21    1
     8    22    23    1
     9    23    24    1
    10    24    25   ar
    11    25    26   ar
    12    26    27   ar
    13    27    28   ar
    14    28    29   ar
    15    29    30    1
    16    30    31    1
    17     2     1    1
    18     2     3    1
    19     3     4    1
    20     4     5    1
    21     5     6    1
    22     6     7   ar
    23     7     8   ar
    24     8     9   ar
    25     9    10   ar
    26    10    11   ar
    27    16    17    1
    28    17    18    1
    29    18    13    1
    30    31    22    1
    31    11     2    1
    32    29    24   ar
    33    11     6   ar
    34    12    19    1
    35    12    20    1
    36    31    32    1
@<TRIPOS>MOLECULE
*****
 32 36 0 0 0
SMALL
GASTEIGER

@<TRIPOS>ATOM
      1 N          63.9456   90.3910   13.9437 N.3     1  UNL1       -0.2692
      2 C          65.2714   91.0890   13.8740 C.3     1  UNL1        0.0978
      3 C          66.2332   90.9883   15.0206 C.3     1  UNL1        0.0224
      4 C          67.5591   91.6863   14.9508 C.3     1  UNL1        0.0065
      5 C          67.9231   92.4851   13.7345 C.3     1  UNL1        0.0277
      6 C          66.9613   92.5858   12.5880 C.ar    1  UNL1       -0.0073
      7 C          67.3253   93.3846   11.3716 C.ar    1  UNL1       -0.0015
      8 C          66.3635   93.4853   10.2250 C.ar    1  UNL1        0.0203
      9 C          65.0376   92.7873   10.2947 C.ar    1  UNL1        0.0985
     10 N          64.6736   91.9885   11.5110 N.ar    1  UNL1       -0.2471
     11 C          65.6354   91.8878   12.6577 C.ar    1  UNL1        0.0695
     12 N          63.2682   85.5827   17.4680 N.3     1  UNL1       -0.3222
     13 C          63.4376   86.7847   16.5870 C.3     1  UNL1        0.0509
     14 C          62.9485   88.1263   17.0464 C.3     1  UNL1        0.0169
     15 C          63.1178   89.3283   16.1654 C.3     1  UNL1        0.0173
     16 C          63.7762   89.1889   14.8248 C.3     1  UNL1        0.0579
     17 C          64.2653   87.8474   14.3653 C.3     1  UNL1        0.0173
     18 C          64.0960   86.6453   15.2465 C.3     1  UNL1        0.0169
     19 H          62.8051   85.8584   18.3340 H       1  UNL1        0.1188
     20 H          64.1835   85.1871   17.6830 H       1  UNL1        0.1188
     21 C          62.7890   90.8950   13.1324 C.3     1  UNL1        0.0885
     22 C          62.0180   89.9508   12.2582 C.3     1  UNL1        0.0748
     23 C          62.7448   89.0408   11.3130 C.3     1  UNL1        0.0432
     24 C          61.9738   88.0966   10.4388 C.ar    1  UNL1       -0.0234
     25 C          62.7007   87.1867    9.4936 C.ar    1  UNL1       -0.0045
     26 C          61.9296   86.2425    8.6195 C.ar    1  UNL1       -0.0003
     27 C          60.4317   86.2083    8.6907 C.ar    1  UNL1       -0.0003
     28 C          59.7048   87.1182    9.6360 C.ar    1  UNL1       -0.0032
     29 C          60.4759   88.0624   10.5101 C.ar    1  UNL1       -0.0103
     30 C          59.7490   88.9724   11.4554 C.3     1  UNL1        0.0953
     31 N          60.5201   89.9166   12.3295 N.3     1  UNL1       -0.2934
     32 H          60.2762   89.6907   13.2938 H       1  UNL1        0.1236
@<TRIPOS>BOND
     1    13    12    1
     2    13    14    1
     3    14    15    1
     4    15    16    1
     5    16     1    1
     6     1    21    1
     7    22    21    1
     8    22    23    1
     9    23    24    1
    10    24    25   ar
    11    25    26   ar
    12    26    27   ar
    13    27    28   ar
    14    28    29   ar
    15    29    30    1
    16    30    31    1
    17     2     1    1
    18     2     3    1
    19     3     4    1
    20     4     5    1
    21     5     6    1
    22     6     7   ar
    23     7     8   ar
    24     8     9   ar
    25     9    10   ar
    26    10    11   ar
    27    16    17    1
    28    17    18    1
    29    18    13    1
    30    31    22    1
    31    11     2    1
    32    29    24   ar
    33    11     6   ar
    34    12    19    1
    35    12    20    1
    36    31    32    1
@<TRIPOS>MOLECULE
*****
 32 36 0 0 0
SMALL
GASTEIGER

@<TRIPOS>ATOM
      1 N          61.6878   86.9905   10.8029 N.3     1  UNL1       -0.2692
      2 C          62.4609   85.7188   10.6156 C.3     1  UNL1        0.0978
      3 C          62.9723   85.3453    9.2558 C.3     1  UNL1        0.0224
      4 C          63.7453   84.0736    9.0685 C.3     1  UNL1        0.0065
      5 C          64.0069   83.1753   10.2409 C.3     1  UNL1        0.0277
      6 C          63.4955   83.5487   11.6006 C.ar    1  UNL1       -0.0073
      7 C          63.7571   82.6504   12.7731 C.ar    1  UNL1       -0.0015
      8 C          63.2457   83.0239   14.1329 C.ar    1  UNL1        0.0203
      9 C          62.4726   84.2956   14.3202 C.ar    1  UNL1        0.0985
     10 N          62.2110   85.1939   13.1478 N.ar    1  UNL1       -0.2471
     11 C          62.7225   84.8205   11.7880 C.ar    1  UNL1        0.0695
     12 N          58.5783   89.3129    6.2272 N.3     1  UNL1       -0.3222
     13 C          59.3557   88.7323    7.3711 C.3     1  UNL1        0.0509
     14 C          59.3249   87.2543    7.6254 C.3     1  UNL1        0.0169
     15 C          60.1022   86.6737    8.7693 C.3     1  UNL1        0.0173
     16 C          60.9105   87.5711    9.6590 C.3     1  UNL1        0.0579
     17 C          60.9413   89.0491    9.4048 C.3     1  UNL1        0.0173
     18 C          60.1638   89.6297    8.2608 C.3     1  UNL1        0.0169
     19 H          58.0915   88.5653    5.7327 H       1  UNL1        0.1188
     20 H          59.2169   89.7846    5.5868 H       1  UNL1        0.1188
     21 C          61.6922   87.6817   12.1341 C.3     1  UNL1        0.0885
     22 C          62.6918   88.7647   12.4137 C.3     1  UNL1        0.0748
     23 C          62.9599   89.8219   11.3840 C.3     1  UNL1        0.0432
     24 C          63.9594   90.9049   11.6636 C.ar    1  UNL1       -0.0234
     25 C          64.2275   91.9621   10.6338 C.ar    1  UNL1       -0.0045
     26 C          65.2271   93.0450   10.9134 C.ar    1  UNL1       -0.0003
     27 C          65.9585   93.0706   12.2228 C.ar    1  UNL1       -0.0003
     28 C          65.6904   92.0134   13.2525 C.ar    1  UNL1       -0.0032
     29 C          64.6909   90.9305   12.9729 C.ar    1  UNL1       -0.0103
     30 C          64.4228   89.8732   14.0026 C.3     1  UNL1        0.0953
     31 N          63.4232   88.7903   13.7230 N.3     1  UNL1       -0.2934
     32 H          62.7150   88.8472   14.4549 H       1  UNL1        0.1236
@<TRIPOS>BOND
     1    13    12    1
     2    13    14    1
     3    14    15    1
     4    15    16    1
     5    16     1    1
     6     1    21    1
     7    22    21    1
     8    22    23    1
     9    23    24    1
    10    24    25   ar
    11    25    26   ar
    12    26    27   ar
    13    27    28   ar
    14    28    29   ar
    15    29    30    1
    16    30    31    1
    17     2     1    1
    18     2     3    1
    19     3     4    1
    20     4     5    1
    21     5     6    1
    22     6     7   ar
    23     7     8   ar
    24     8     9   ar
    25     9    10   ar
    26    10    11   ar
    27    16    17    1
    28    17    18    1
    29    18    13    1
    30    31    22    1
    31    11     2    1
    32    29    24   ar
    33    11     6   ar
    34    12    19    1
    35    12    20    1
    36    31    32    1
@<TRIPOS>MOLECULE
*****
 32 36 0 0 0
SMALL
GASTEIGER

@<TRIPOS>ATOM
      1 N          64.0110   87.8407   13.9377 N.3     1  UNL1       -0.2692
      2 C          63.2346   87.8266   12.6543 C.3     1  UNL1        0.0978
      3 C          62.5257   86.5780   12.2204 C.3     1  UNL1        0.0224
      4 C          61.7493   86.5639   10.9370 C.3     1  UNL1        0.0065
      5 C          61.6819   87.7984   10.0876 C.3     1  UNL1        0.0277
      6 C          62.3908   89.0470   10.5216 C.ar    1  UNL1       -0.0073
      7 C          62.3234   90.2815    9.6722 C.ar    1  UNL1       -0.0015
      8 C          63.0324   91.5301   10.1062 C.ar    1  UNL1        0.0203
      9 C          63.8087   91.5442   11.3896 C.ar    1  UNL1        0.0985
     10 N          63.8761   90.3098   12.2389 N.ar    1  UNL1       -0.2471
     11 C          63.1672   89.0611   11.8050 C.ar    1  UNL1        0.0695
     12 N          64.4824   92.9159   17.1031 N.3     1  UNL1       -0.3222
     13 C          64.3645   91.6471   16.3118 C.3     1  UNL1        0.0509
     14 C          63.2774   90.6635   16.6292 C.3     1  UNL1        0.0169
     15 C          63.1595   89.3947   15.8378 C.3     1  UNL1        0.0173
     16 C          64.1288   89.1095   14.7291 C.3     1  UNL1        0.0579
     17 C          65.2159   90.0931   14.4117 C.3     1  UNL1        0.0173
     18 C          65.3337   91.3620   15.2031 C.3     1  UNL1        0.0169
     19 H          63.7479   92.9450   17.8104 H       1  UNL1        0.1188
     20 H          64.3848   93.7164   16.4786 H       1  UNL1        0.1188
     21 C          64.6695   86.5861   14.4298 C.3     1  UNL1        0.0885
     22 C          63.9136   85.2904   14.4239 C.3     1  UNL1        0.0748
     23 C          64.2250   84.2451   13.3943 C.3     1  UNL1        0.0432
     24 C          63.4692   82.9494   13.3884 C.ar    1  UNL1       -0.0234
     25 C          63.7806   81.9041   12.3587 C.ar    1  UNL1       -0.0045
     26 C          63.0248   80.6085   12.3529 C.ar    1  UNL1       -0.0003
     27 C          61.9575   80.3582   13.3768 C.ar    1  UNL1       -0.0003
     28 C          61.6461   81.4035   14.4064 C.ar    1  UNL1       -0.0032
     29 C          62.4019   82.6991   14.4122 C.ar    1  UNL1       -0.0103
     30 C          62.0905   83.7445   15.4419 C.3     1  UNL1        0.0953
     31 N          62.8463   85.0401   15.4478 N.3     1  UNL1       -0.2934
     32 H          63.2916   85.1171   16.3622 H       1  UNL1        0.1236
@<TRIPOS>BOND
     1    13    12    1
     2    13    14    1
     3    14    15    1
     4    15    16    1
     5    16     1    1
     6     1    21    1
     7    22    21    1
     8    22    23    1
     9    23    24    1
    10    24    25   ar
    11    25    26   ar
    12    26    27   ar
    13    27    28   ar
    14    28    29   ar
    15    29    30    1
    16    30    31    1
    17     2     1    1
    18     2     3    1
    19     3     4    1
    20     4     5    1
    21     5     6    1
    22     6     7   ar
    23     7     8   ar
    24     8     9   ar
    25     9    10   ar
    26    10    11   ar
    27    16    17    1
    28    17    18    1
    29    18    13    1
    30    31    22    1
    31    11     2    1
    32    29    24   ar
    33    11     6   ar
    34    12    19    1
    35    12    20    1
    36    31    32    1
@<TRIPOS>MOLECULE
*****
 32 36 0 0 0
SMALL
GASTEIGER

@<TRIPOS>ATOM
      1 N          62.2924   86.4650   11.6171 N.3     1  UNL1       -0.2692
      2 C          62.2132   86.0034   10.1921 C.3     1  UNL1        0.0978
      3 C          63.2442   85.0574    9.6517 C.3     1  UNL1        0.0224
      4 C          63.1649   84.5959    8.2267 C.3     1  UNL1        0.0065
      5 C          62.0547   85.0803    7.3421 C.3     1  UNL1        0.0277
      6 C          61.0237   86.0262    7.8825 C.ar    1  UNL1       -0.0073
      7 C          59.9133   86.5107    6.9978 C.ar    1  UNL1       -0.0015
      8 C          58.8823   87.4567    7.5382 C.ar    1  UNL1        0.0203
      9 C          58.9616   87.9183    8.9632 C.ar    1  UNL1        0.0985
     10 N          60.0718   87.4339    9.8478 N.ar    1  UNL1       -0.2471
     11 C          61.1029   86.4878    9.3075 C.ar    1  UNL1        0.0695
     12 N          64.7718   82.9292   15.7825 N.3     1  UNL1       -0.3222
     13 C          64.1520   83.8131   14.7411 C.3     1  UNL1        0.0509
     14 C          63.1817   83.2395   13.7515 C.3     1  UNL1        0.0169
     15 C          62.5618   84.1235   12.7101 C.3     1  UNL1        0.0173
     16 C          62.9123   85.5811   12.6584 C.3     1  UNL1        0.0579
     17 C          63.8826   86.1547   13.6481 C.3     1  UNL1        0.0173
     18 C          64.5024   85.2707   14.6895 C.3     1  UNL1        0.0169
     19 H          64.4235   81.9770   15.6713 H       1  UNL1        0.1188
     20 H          64.5276   83.2744   16.7107 H       1  UNL1        0.1188
     21 C          61.7518   87.8105   12.0008 C.3     1  UNL1        0.0885
     22 C          62.5484   89.0487   11.7135 C.3     1  UNL1        0.0748
     23 C          63.4480   89.6231   12.7674 C.3     1  UNL1        0.0432
     24 C          64.2446   90.8613   12.4801 C.ar    1  UNL1       -0.0234
     25 C          65.1442   91.4357   13.5340 C.ar    1  UNL1       -0.0045
     26 C          65.9407   92.6738   13.2466 C.ar    1  UNL1       -0.0003
     27 C          65.8377   93.3374   11.9054 C.ar    1  UNL1       -0.0003
     28 C          64.9382   92.7630   10.8515 C.ar    1  UNL1       -0.0032
     29 C          64.1416   91.5249   11.1388 C.ar    1  UNL1       -0.0103
     30 C          63.2420   90.9504   10.0849 C.3     1  UNL1        0.0953
     31 N          62.4454   89.7123   10.3722 N.3     1  UNL1       -0.2934
     32 H          62.7205   89.0175    9.6780 H       1  UNL1        0.1236
@<TRIPOS>BOND
     1    13    12    1
     2    13    14    1
     3    14    15    1
     4    15    16    1
     5    16     1    1
     6     1    21    1
     7    22    21    1
     8    22    23    1
     9    23    24    1
    10    24    25   ar
    11    25    26   ar
    12    26    27   ar
    13    27    28   ar
    14    28    29   ar
    15    29    30    1
    16    30    31    1
    17     2     1    1
    18     2     3    1
    19     3     4    1
    20     4     5    1
    21     5     6    1
    22     6     7   ar
    23     7     8   ar
    24     8     9   ar
    25     9    10   ar
    26    10    11   ar
    27    16    17    1
    28    17    18    1
    29    18    13    1
    30    31    22    1
    31    11     2    1
    32    29    24   ar
    33    11     6   ar
    34    12    19    1
    35    12    20    1
    36    31    32    1
@<TRIPOS>MOLECULE
*****
 32 36 0 0 0
SMALL
GASTEIGER

@<TRIPOS>ATOM
      1 N          63.3280   90.2158   12.3578 N.3     1  UNL1       -0.2692
      2 C          64.2805   91.3434   12.0909 C.3     1  UNL1        0.0978
      3 C          64.4473   91.8702   10.6964 C.3     1  UNL1        0.0224
      4 C          65.3999   92.9978   10.4296 C.3     1  UNL1        0.0065
      5 C          66.1856   93.5986   11.5572 C.3     1  UNL1        0.0277
      6 C          66.0189   93.0718   12.9517 C.ar    1  UNL1       -0.0073
      7 C          66.8047   93.6725   14.0794 C.ar    1  UNL1       -0.0015
      8 C          66.6379   93.1457   15.4739 C.ar    1  UNL1        0.0203
      9 C          65.6853   92.0181   15.7407 C.ar    1  UNL1        0.0985
     10 N          64.8996   91.4174   14.6131 N.ar    1  UNL1       -0.2471
     11 C          65.0663   91.9442   13.2185 C.ar    1  UNL1        0.0695
     12 N          59.3613   88.5831    8.1627 N.3     1  UNL1       -0.3222
     13 C          60.3530   88.9912    9.2114 C.3     1  UNL1        0.0509
     14 C          61.6894   88.3140    9.2840 C.3     1  UNL1        0.0169
     15 C          62.6811   88.7222   10.3328 C.3     1  UNL1        0.0173
     16 C          62.3363   89.8077   11.3090 C.3     1  UNL1        0.0579
     17 C          60.9999   90.4849   11.2364 C.3     1  UNL1        0.0173
     18 C          60.0082   90.0767   10.1876 C.3     1  UNL1        0.0169
     19 H          59.7588   87.8381    7.5905 H       1  UNL1        0.1188
     20 H          59.1416   89.3851    7.5719 H       1  UNL1        0.1188
     21 C          63.3671   89.4964   13.6734 C.3     1  UNL1        0.0885
     22 C          63.6163   88.0178   13.7125 C.3     1  UNL1        0.0748
     23 C          63.0475   87.1327   12.6434 C.3     1  UNL1        0.0432
     24 C          63.2967   85.6541   12.6825 C.ar    1  UNL1       -0.0234
     25 C          62.7280   84.7690   11.6133 C.ar    1  UNL1       -0.0045
     26 C          62.9772   83.2905   11.6525 C.ar    1  UNL1       -0.0003
     27 C          63.7952   82.6969   12.7609 C.ar    1  UNL1       -0.0003
     28 C          64.3640   83.5819   13.8301 C.ar    1  UNL1       -0.0032
     29 C          64.1147   85.0605   13.7909 C.ar    1  UNL1       -0.0103
     30 C          64.6835   85.9456   14.8601 C.3     1  UNL1        0.0953
     31 N          64.4343   87.4242   14.8209 N.3     1  UNL1       -0.2934
     32 H          65.3481   87.8760   14.7870 H       1  UNL1        0.1236
@<TRIPOS>BOND
     1    13    12    1
     2    13    14    1
     3    14    15    1
     4    15    16    1
     5    16     1    1
     6     1    21    1
     7    22    21    1
     8    22    23    1
     9    23    24    1
    10    24    25   ar
    11    25    26   ar
    12    26    27   ar
    13    27    28   ar
    14    28    29   ar
    15    29    30    1
    16    30    31    1
    17     2     1    1
    18     2     3    1
    19     3     4    1
    20     4     5    1
    21     5     6    1
    22     6     7   ar
    23     7     8   ar
    24     8     9   ar
    25     9    10   ar
    26    10    11   ar
    27    16    17    1
    28    17    18    1
    29    18    13    1
    30    31    22    1
    31    11     2    1
    32    29    24   ar
    33    11     6   ar
    34    12    19    1
    35    12    20    1
    36    31    32    1
@<TRIPOS>MOLECULE
*****
 32 36 0 0 0
SMALL
GASTEIGER

@<TRIPOS>ATOM
      1 N          62.4905   87.9136   11.4990 N.3     1  UNL1       -0.2692
      2 C          63.0745   89.2950   11.4737 C.3     1  UNL1        0.0978
      3 C          63.0284   90.1058   10.2126 C.3     1  UNL1        0.0224
      4 C          63.6124   91.4871   10.1872 C.3     1  UNL1        0.0065
      5 C          64.2426   92.0578   11.4230 C.3     1  UNL1        0.0277
      6 C          64.2888   91.2470   12.6841 C.ar    1  UNL1       -0.0073
      7 C          64.9190   91.8176   13.9200 C.ar    1  UNL1       -0.0015
      8 C          64.9652   91.0069   15.1811 C.ar    1  UNL1        0.0203
      9 C          64.3811   89.6255   15.2065 C.ar    1  UNL1        0.0985
     10 N          63.7509   89.0549   13.9707 N.ar    1  UNL1       -0.2471
     11 C          63.7047   89.8656   12.7095 C.ar    1  UNL1        0.0695
     12 N          58.5814   86.2311    7.2696 N.3     1  UNL1       -0.3222
     13 C          59.5587   86.6517    8.3269 C.3     1  UNL1        0.0509
     14 C          59.0882   87.4438    9.5107 C.3     1  UNL1        0.0169
     15 C          60.0654   87.8645   10.5680 C.3     1  UNL1        0.0173
     16 C          61.5132   87.4930   10.4417 C.3     1  UNL1        0.0579
     17 C          61.9837   86.7009    9.2580 C.3     1  UNL1        0.0173
     18 C          61.0064   86.2803    8.2006 C.3     1  UNL1        0.0169
     19 H          57.6499   86.5665    7.5148 H       1  UNL1        0.1188
     20 H          58.5698   85.2134    7.2029 H       1  UNL1        0.1188
     21 C          62.8836   86.9529   12.5818 C.3     1  UNL1        0.0885
     22 C          62.9153   85.4795   12.3019 C.3     1  UNL1        0.0748
     23 C          62.5029   84.5051   13.3651 C.3     1  UNL1        0.0432
     24 C          62.5346   83.0317   13.0853 C.ar    1  UNL1       -0.0234
     25 C          62.1221   82.0573   14.1484 C.ar    1  UNL1       -0.0045
     26 C          62.1539   80.5840   13.8686 C.ar    1  UNL1       -0.0003
     27 C          62.5980   80.0851   12.5255 C.ar    1  UNL1       -0.0003
     28 C          63.0105   81.0595   11.4623 C.ar    1  UNL1       -0.0032
     29 C          62.9787   82.5328   11.7422 C.ar    1  UNL1       -0.0103
     30 C          63.3912   83.5073   10.6790 C.3     1  UNL1        0.0953
     31 N          63.3595   84.9806   10.9588 N.3     1  UNL1       -0.2934
     32 H          62.7353   85.3981   10.2685 H       1  UNL1        0.1236
@<TRIPOS>BOND
     1    13    12    1
     2    13    14    1
     3    14    15    1
     4    15    16    1
     5    16     1    1
     6     1    21    1
     7    22    21    1
     8    22    23    1
     9    23    24    1
    10    24    25   ar
    11    25    26   ar
    12    26    27   ar
    13    27    28   ar
    14    28    29   ar
    15    29    30    1
    16    30    31    1
    17     2     1    1
    18     2     3    1
    19     3     4    1
    20     4     5    1
    21     5     6    1
    22     6     7   ar
    23     7     8   ar
    24     8     9   ar
    25     9    10   ar
    26    10    11   ar
    27    16    17    1
    28    17    18    1
    29    18    13    1
    30    31    22    1
    31    11     2    1
    32    29    24   ar
    33    11     6   ar
    34    12    19    1
    35    12    20    1
    36    31    32    1
@<TRIPOS>MOLECULE
*****
 32 36 0 0 0
SMALL
GASTEIGER

@<TRIPOS>ATOM
      1 N          63.8271   88.4508   13.5850 N.3     1  UNL1       -0.2692
      2 C          63.9415   89.4868   14.6637 C.3     1  UNL1        0.0978
      3 C          63.1563   89.3378   15.9330 C.3     1  UNL1        0.0224
      4 C          63.2707   90.3737   17.0118 C.3     1  UNL1        0.0065
      5 C          64.1705   91.5587   16.8213 C.3     1  UNL1        0.0277
      6 C          64.9557   91.7077   15.5520 C.ar    1  UNL1       -0.0073
      7 C          65.8555   92.8927   15.3614 C.ar    1  UNL1       -0.0015
      8 C          66.6408   93.0417   14.0922 C.ar    1  UNL1        0.0203
      9 C          66.5263   92.0057   13.0134 C.ar    1  UNL1        0.0985
     10 N          65.6266   90.8208   13.2039 N.ar    1  UNL1       -0.2471
     11 C          64.8413   90.6717   14.4732 C.ar    1  UNL1        0.0695
     12 N          60.2922   89.4398    8.8388 N.3     1  UNL1       -0.3222
     13 C          61.1759   89.1925   10.0253 C.3     1  UNL1        0.0509
     14 C          61.7959   87.8421   10.2303 C.3     1  UNL1        0.0169
     15 C          62.6796   87.5949   11.4169 C.3     1  UNL1        0.0173
     16 C          62.9434   88.6981   12.3985 C.3     1  UNL1        0.0579
     17 C          62.3234   90.0485   12.1934 C.3     1  UNL1        0.0173
     18 C          61.4397   90.2957   11.0068 C.3     1  UNL1        0.0169
     19 H          60.2238   88.5876    8.2824 H       1  UNL1        0.1188
     20 H          60.6892   90.1869    8.2690 H       1  UNL1        0.1188
     21 C          64.5963   87.1677   13.6927 C.3     1  UNL1        0.0885
     22 C          63.8702   85.8745   13.9179 C.3     1  UNL1        0.0748
     23 C          63.9230   84.7940   12.8789 C.3     1  UNL1        0.0432
     24 C          63.1969   83.5008   13.1040 C.ar    1  UNL1       -0.0234
     25 C          63.2497   82.4203   12.0650 C.ar    1  UNL1       -0.0045
     26 C          62.5236   81.1272   12.2902 C.ar    1  UNL1       -0.0003
     27 C          61.7447   80.9147   13.5544 C.ar    1  UNL1       -0.0003
     28 C          61.6919   81.9953   14.5934 C.ar    1  UNL1       -0.0032
     29 C          62.4180   83.2883   14.3682 C.ar    1  UNL1       -0.0103
     30 C          62.3652   84.3690   15.4072 C.3     1  UNL1        0.0953
     31 N          63.0913   85.6620   15.1821 N.3     1  UNL1       -0.2934
     32 H          63.7488   85.7689   15.9545 H       1  UNL1        0.1236
@<TRIPOS>BOND
     1    13    12    1
     2    13    14    1
     3    14    15    1
     4    15    16    1
     5    16     1    1
     6     1    21    1
     7    22    21    1
     8    22    23    1
     9    23    24    1
    10    24    25   ar
    11    25    26   ar
    12    26    27   ar
    13    27    28   ar
    14    28    29   ar
    15    29    30    1
    16    30    31    1
    17     2     1    1
    18     2     3    1
    19     3     4    1
    20     4     5    1
    21     5     6    1
    22     6     7   ar
    23     7     8   ar
    24     8     9   ar
    25     9    10   ar
    26    10    11   ar
    27    16    17    1
    28    17    18    1
    29    18    13    1
    30    31    22    1
    31    11     2    1
    32    29    24   ar
    33    11     6   ar
    34    12    19    1
    35    12    20    1
    36    31    32    1
@<TRIPOS>MOLECULE
*****
 32 36 0 0 0
SMALL
GASTEIGER

@<TRIPOS>ATOM
      1 N          63.2054   89.0255   13.4454 N.3     1  UNL1       -0.2692
      2 C          62.9667   89.6642   12.1093 C.3     1  UNL1        0.0978
      3 C          63.8251   90.8099   11.6616 C.3     1  UNL1        0.0224
      4 C          63.5863   91.4486   10.3256 C.3     1  UNL1        0.0065
      5 C          62.4891   90.9417    9.4373 C.3     1  UNL1        0.0277
      6 C          61.6307   89.7961    9.8850 C.ar    1  UNL1       -0.0073
      7 C          60.5334   89.2891    8.9967 C.ar    1  UNL1       -0.0015
      8 C          59.6749   88.1435    9.4444 C.ar    1  UNL1        0.0203
      9 C          59.9137   87.5047   10.7805 C.ar    1  UNL1        0.0985
     10 N          61.0109   88.0116   11.6688 N.ar    1  UNL1       -0.2471
     11 C          61.8694   89.1573   11.2210 C.ar    1  UNL1        0.0695
     12 N          64.6726   83.2170   13.7743 N.3     1  UNL1       -0.3222
     13 C          64.3058   84.6691   13.6921 C.3     1  UNL1        0.0509
     14 C          63.4431   85.1623   12.5685 C.3     1  UNL1        0.0169
     15 C          63.0763   86.6144   12.4862 C.3     1  UNL1        0.0173
     16 C          63.5722   87.5734   13.5276 C.3     1  UNL1        0.0579
     17 C          64.4349   87.0802   14.6512 C.3     1  UNL1        0.0173
     18 C          64.8017   85.6280   14.7334 C.3     1  UNL1        0.0169
     19 H          64.2529   82.7154   12.9916 H       1  UNL1        0.1188
     20 H          64.3271   82.8282   14.6518 H       1  UNL1        0.1188
     21 C          63.0774   89.8389   14.6991 C.3     1  UNL1        0.0885
     22 C          64.2005   90.7353   15.1296 C.3     1  UNL1        0.0748
     23 C          65.4962   90.7300   14.3738 C.3     1  UNL1        0.0432
     24 C          66.6192   91.6264   14.8042 C.ar    1  UNL1       -0.0234
     25 C          67.9149   91.6211   14.0485 C.ar    1  UNL1       -0.0045
     26 C          69.0378   92.5175   14.4789 C.ar    1  UNL1       -0.0003
     27 C          68.8652   93.4192   15.6651 C.ar    1  UNL1       -0.0003
     28 C          67.5695   93.4246   16.4209 C.ar    1  UNL1       -0.0032
     29 C          66.4465   92.5281   15.9904 C.ar    1  UNL1       -0.0103
     30 C          65.1508   92.5334   16.7462 C.3     1  UNL1        0.0953
     31 N          64.0278   91.6370   16.3158 N.3     1  UNL1       -0.2934
     32 H          63.2306   92.2402   16.1135 H       1  UNL1        0.1236
@<TRIPOS>BOND
     1    13    12    1
     2    13    14    1
     3    14    15    1
     4    15    16    1
     5    16     1    1
     6     1    21    1
     7    22    21    1
     8    22    23    1
     9    23    24    1
    10    24    25   ar
    11    25    26   ar
    12    26    27   ar
    13    27    28   ar
    14    28    29   ar
    15    29    30    1
    16    30    31    1
    17     2     1    1
    18     2     3    1
    19     3     4    1
    20     4     5    1
    21     5     6    1
    22     6     7   ar
    23     7     8   ar
    24     8     9   ar
    25     9    10   ar
    26    10    11   ar
    27    16    17    1
    28    17    18    1
    29    18    13    1
    30    31    22    1
    31    11     2    1
    32    29    24   ar
    33    11     6   ar
    34    12    19    1
    35    12    20    1
    36    31    32    1
