@<TRIPOS>MOLECULE
*****
 36 40 0 0 0
SMALL
GASTEIGER

@<TRIPOS>ATOM
      1 N          65.4450   92.7991   11.8661 N.ar    1  UNL1       -0.2757
      2 C          66.3176   93.5273   12.8450 C.ar    1  UNL1        0.3342
      3 O          67.1829   94.6608   12.3797 O.2     1  UNL1       -0.2462
      4 N          66.3250   93.1220   14.2892 N.ar    1  UNL1       -0.2467
      5 C          67.1976   93.8502   15.2680 C.3     1  UNL1        0.1382
      6 C          65.4598   91.9885   14.7545 C.ar    1  UNL1        0.2663
      7 O          65.4672   91.5832   16.1986 O.2     1  UNL1       -0.2668
      8 C          64.5872   91.2603   13.7756 C.ar    1  UNL1        0.0829
      9 C          63.6352   90.1128   13.9399 C.ar    1  UNL1        0.0624
     10 C          63.0394   89.8089   12.5972 C.ar    1  UNL1        0.0176
     11 S          63.6232   90.7685   11.6031 S.2     1  UNL1       -0.0734
     12 C          64.5797   91.6656   12.3314 C.ar    1  UNL1        0.0982
     13 C          63.3322   89.3952   15.2217 C.2     1  UNL1        0.2495
     14 O          62.6763   90.1279   16.3544 O.2     1  UNL1       -0.2699
     15 N          63.6850   87.9449   15.3709 N.am    1  UNL1       -0.2735
     16 C          63.4446   87.0995   16.5864 C.3     1  UNL1        0.0964
     17 C          63.9512   85.7176   16.2975 C.3     1  UNL1        0.0525
     18 C          64.5048   85.7089   14.9034 C.3     1  UNL1        0.1320
     19 O          65.1157   84.5305   14.2046 O.3     1  UNL1       -0.3827
     20 C          64.3403   87.0855   14.3307 C.3     1  UNL1        0.1228
     21 H          65.3940   84.7919   13.3129 H       1  UNL1        0.2104
     22 C          65.4376   93.2044   10.4219 C.3     1  UNL1        0.1109
     23 C          67.7719   92.2975    9.7300 C.3     1  UNL1        0.0020
     24 C          66.7325   93.3782    9.6851 C.3     1  UNL1        0.0228
     25 C          66.9881   94.6325    8.9033 C.3     1  UNL1        0.0020
     26 C          62.0361   88.7340   12.3007 C.3     1  UNL1        0.0595
     27 C          61.3748   88.6758   10.9556 C.ar    1  UNL1       -0.0143
     28 C          60.4885   89.7995   10.5063 C.ar    1  UNL1        0.0168
     29 C          59.8272   89.7412    9.1612 C.ar    1  UNL1        0.0985
     30 N          60.0520   88.5593    8.2655 N.ar    1  UNL1       -0.2439
     31 C          60.9383   87.4356    8.7147 C.ar    1  UNL1        0.0810
     32 C          61.1632   86.2537    7.8189 C.ar    1  UNL1        0.0191
     33 C          62.0495   85.1300    8.2682 C.ar    1  UNL1        0.0015
     34 C          62.7108   85.1882    9.6133 C.ar    1  UNL1        0.0001
     35 C          62.4859   86.3701   10.5091 C.ar    1  UNL1        0.0012
     36 C          61.5997   87.4938   10.0598 C.ar    1  UNL1        0.0141
@<TRIPOS>BOND
     1    23    24    1
     2    24    25    1
     3    24    22    1
     4    22     1    1
     5     1     2   ar
     6     2     3    2
     7     2     4   ar
     8     4     5    1
     9     4     6   ar
    10     6     7    2
    11     6     8   ar
    12     8     9   ar
    13     9    13    1
    14    13    14    2
    15    13    15   am
    16    15    16    1
    17    16    17    1
    18    17    18    1
    19    18    19    1
    20    18    20    1
    21     9    10   ar
    22    10    26    1
    23    26    27    1
    24    27    28   ar
    25    28    29   ar
    26    29    30   ar
    27    30    31   ar
    28    31    32   ar
    29    32    33   ar
    30    33    34   ar
    31    34    35   ar
    32    35    36   ar
    33    10    11   ar
    34    11    12   ar
    35    12     1   ar
    36    12     8   ar
    37    20    15    1
    38    36    27   ar
    39    36    31   ar
    40    19    21    1
@<TRIPOS>MOLECULE
*****
 36 40 0 0 0
SMALL
GASTEIGER

@<TRIPOS>ATOM
      1 N          65.8050   92.5384   13.8061 N.ar    1  UNL1       -0.2757
      2 C          65.9995   93.5614   12.7263 C.ar    1  UNL1        0.3342
      3 O          66.8609   94.7633   12.9783 O.2     1  UNL1       -0.2462
      4 N          65.3327   93.3825   11.3947 N.ar    1  UNL1       -0.2467
      5 C          65.5272   94.4055   10.3151 C.3     1  UNL1        0.1382
      6 C          64.4713   92.1806   11.1428 C.ar    1  UNL1        0.2663
      7 O          63.8044   92.0017    9.8112 O.2     1  UNL1       -0.2668
      8 C          64.2768   91.1577   12.2224 C.ar    1  UNL1        0.0829
      9 C          63.4909   89.8807   12.2654 C.ar    1  UNL1        0.0624
     10 C          63.6721   89.2704   13.6237 C.ar    1  UNL1        0.0176
     11 S          64.5699   90.1702   14.4201 S.2     1  UNL1       -0.0734
     12 C          64.9436   91.3366   13.5541 C.ar    1  UNL1        0.0982
     13 C          62.6683   89.3136   11.1466 C.2     1  UNL1        0.2495
     14 O          63.3206   88.9506    9.8456 O.2     1  UNL1       -0.2699
     15 N          61.1935   89.1096   11.3289 N.am    1  UNL1       -0.2735
     16 C          60.2470   88.5552   10.3058 C.3     1  UNL1        0.0964
     17 C          58.8748   88.5271   10.9109 C.3     1  UNL1        0.0525
     18 C          58.9732   89.0641   12.3080 C.3     1  UNL1        0.1320
     19 O          57.8378   89.2147   13.2767 O.3     1  UNL1       -0.3827
     20 C          60.4062   89.4241   12.5664 C.3     1  UNL1        0.1228
     21 H          58.1701   89.5852   14.1093 H       1  UNL1        0.2104
     22 C          66.4719   92.7174   15.1377 C.3     1  UNL1        0.1109
     23 C          68.8146   91.8643   14.4068 C.3     1  UNL1        0.0020
     24 C          67.9674   92.7950   15.2231 C.3     1  UNL1        0.0228
     25 C          68.6159   93.8031   16.1248 C.3     1  UNL1        0.0020
     26 C          63.0625   87.9859   14.1016 C.3     1  UNL1        0.0595
     27 C          63.8689   86.7213   14.0850 C.ar    1  UNL1       -0.0143
     28 C          64.9582   86.5131   15.0950 C.ar    1  UNL1        0.0168
     29 C          65.7646   85.2484   15.0785 C.ar    1  UNL1        0.0985
     30 N          65.4818   84.1919   14.0520 N.ar    1  UNL1       -0.2439
     31 C          64.3924   84.4000   13.0420 C.ar    1  UNL1        0.0810
     32 C          64.1096   83.3435   12.0155 C.ar    1  UNL1        0.0191
     33 C          63.0203   83.5517   11.0055 C.ar    1  UNL1        0.0015
     34 C          62.2139   84.8164   11.0220 C.ar    1  UNL1        0.0001
     35 C          62.4967   85.8729   12.0485 C.ar    1  UNL1        0.0012
     36 C          63.5860   85.6647   13.0585 C.ar    1  UNL1        0.0141
@<TRIPOS>BOND
     1    23    24    1
     2    24    25    1
     3    24    22    1
     4    22     1    1
     5     1     2   ar
     6     2     3    2
     7     2     4   ar
     8     4     5    1
     9     4     6   ar
    10     6     7    2
    11     6     8   ar
    12     8     9   ar
    13     9    13    1
    14    13    14    2
    15    13    15   am
    16    15    16    1
    17    16    17    1
    18    17    18    1
    19    18    19    1
    20    18    20    1
    21     9    10   ar
    22    10    26    1
    23    26    27    1
    24    27    28   ar
    25    28    29   ar
    26    29    30   ar
    27    30    31   ar
    28    31    32   ar
    29    32    33   ar
    30    33    34   ar
    31    34    35   ar
    32    35    36   ar
    33    10    11   ar
    34    11    12   ar
    35    12     1   ar
    36    12     8   ar
    37    20    15    1
    38    36    27   ar
    39    36    31   ar
    40    19    21    1
@<TRIPOS>MOLECULE
*****
 36 40 0 0 0
SMALL
GASTEIGER

@<TRIPOS>ATOM
      1 N          63.5711   84.9644   12.6250 N.ar    1  UNL1       -0.2757
      2 C          63.5549   83.9785   11.4945 C.ar    1  UNL1        0.3342
      3 O          63.9364   82.5489   11.7407 O.2     1  UNL1       -0.2462
      4 N          63.1572   84.4223   10.1180 N.ar    1  UNL1       -0.2467
      5 C          63.1411   83.4365    8.9876 C.3     1  UNL1        0.1382
      6 C          62.7758   85.8520    9.8718 C.ar    1  UNL1        0.2663
      7 O          62.3781   86.2958    8.4953 O.2     1  UNL1       -0.2668
      8 C          62.7919   86.8378   11.0022 C.ar    1  UNL1        0.0829
      9 C          62.4685   88.3013   11.0624 C.ar    1  UNL1        0.0624
     10 C          62.6662   88.7620   12.4762 C.ar    1  UNL1        0.0176
     11 S          63.1119   87.5833   13.2897 S.2     1  UNL1       -0.0734
     12 C          63.1896   86.3941   12.3788 C.ar    1  UNL1        0.0982
     13 C          62.0251   89.1543    9.9110 C.2     1  UNL1        0.2495
     14 O          62.7394   90.4386    9.6104 O.2     1  UNL1       -0.2699
     15 N          60.8675   88.7230    9.0602 N.am    1  UNL1       -0.2735
     16 C          60.3136   89.4677    7.8819 C.3     1  UNL1        0.0964
     17 C          59.1643   88.6763    7.3318 C.3     1  UNL1        0.0525
     18 C          59.0079   87.4423    8.1701 C.3     1  UNL1        0.1320
     19 O          57.9794   86.3680    7.9746 O.3     1  UNL1       -0.3827
     20 C          60.0605   87.4712    9.2384 C.3     1  UNL1        0.1228
     21 H          58.0954   85.6823    8.6509 H       1  UNL1        0.2104
     22 C          63.9687   84.5206   14.0015 C.3     1  UNL1        0.1109
     23 C          62.4586   84.8864   16.0838 C.3     1  UNL1        0.0020
     24 C          62.9282   84.0153   14.9565 C.3     1  UNL1        0.0228
     25 C          62.3573   82.6390   14.7841 C.3     1  UNL1        0.0020
     26 C          62.4554   90.1565   12.9867 C.3     1  UNL1        0.0595
     27 C          63.5657   90.8703   13.6992 C.ar    1  UNL1       -0.0143
     28 C          63.6947   90.7582   15.1894 C.ar    1  UNL1        0.0168
     29 C          64.8050   91.4720   15.9019 C.ar    1  UNL1        0.0985
     30 N          65.7864   92.2979   15.1242 N.ar    1  UNL1       -0.2439
     31 C          65.6574   92.4100   13.6339 C.ar    1  UNL1        0.0810
     32 C          66.6388   93.2358   12.8562 C.ar    1  UNL1        0.0191
     33 C          66.5098   93.3479   11.3660 C.ar    1  UNL1        0.0015
     34 C          65.3995   92.6342   10.6535 C.ar    1  UNL1        0.0001
     35 C          64.4181   91.8083   11.4312 C.ar    1  UNL1        0.0012
     36 C          64.5471   91.6962   12.9214 C.ar    1  UNL1        0.0141
@<TRIPOS>BOND
     1    23    24    1
     2    24    25    1
     3    24    22    1
     4    22     1    1
     5     1     2   ar
     6     2     3    2
     7     2     4   ar
     8     4     5    1
     9     4     6   ar
    10     6     7    2
    11     6     8   ar
    12     8     9   ar
    13     9    13    1
    14    13    14    2
    15    13    15   am
    16    15    16    1
    17    16    17    1
    18    17    18    1
    19    18    19    1
    20    18    20    1
    21     9    10   ar
    22    10    26    1
    23    26    27    1
    24    27    28   ar
    25    28    29   ar
    26    29    30   ar
    27    30    31   ar
    28    31    32   ar
    29    32    33   ar
    30    33    34   ar
    31    34    35   ar
    32    35    36   ar
    33    10    11   ar
    34    11    12   ar
    35    12     1   ar
    36    12     8   ar
    37    20    15    1
    38    36    27   ar
    39    36    31   ar
    40    19    21    1
@<TRIPOS>MOLECULE
*****
 36 40 0 0 0
SMALL
GASTEIGER

@<TRIPOS>ATOM
      1 N          63.2140   90.3621   11.1980 N.ar    1  UNL1       -0.2757
      2 C          63.6584   91.5282   10.3656 C.ar    1  UNL1        0.3342
      3 O          63.2699   91.6083    8.9190 O.2     1  UNL1       -0.2462
      4 N          64.4913   92.6140   10.9797 N.ar    1  UNL1       -0.2467
      5 C          64.9356   93.7800   10.1472 C.3     1  UNL1        0.1382
      6 C          64.8798   92.5339   12.4263 C.ar    1  UNL1        0.2663
      7 O          65.7127   93.6198   13.0404 O.2     1  UNL1       -0.2668
      8 C          64.4355   91.3679   13.2587 C.ar    1  UNL1        0.0829
      9 C          64.6622   91.0192   14.6999 C.ar    1  UNL1        0.0624
     10 C          63.9694   89.7178   14.9765 C.ar    1  UNL1        0.0176
     11 S          63.3145   89.2622   13.7063 S.2     1  UNL1       -0.0734
     12 C          63.6025   90.2820   12.6446 C.ar    1  UNL1        0.0982
     13 C          65.4443   91.8297   15.6906 C.2     1  UNL1        0.2495
     14 O          64.7748   92.3531   16.9266 O.2     1  UNL1       -0.2699
     15 N          66.8960   92.1167   15.4452 N.am    1  UNL1       -0.2735
     16 C          67.8019   92.9083   16.3410 C.3     1  UNL1        0.0964
     17 C          69.1624   92.9433   15.7105 C.3     1  UNL1        0.0525
     18 C          69.0974   92.1732   14.4249 C.3     1  UNL1        0.1320
     19 O          70.2337   91.9527   13.4707 O.3     1  UNL1       -0.3827
     20 C          67.6967   91.6623   14.2610 C.3     1  UNL1        0.1228
     21 H          69.9263   91.4224   12.7188 H       1  UNL1        0.2104
     22 C          62.3811   89.2763   10.5839 C.3     1  UNL1        0.1109
     23 C          60.3437   88.9732    9.0005 C.3     1  UNL1        0.0020
     24 C          60.9386   89.5298   10.2601 C.3     1  UNL1        0.0228
     25 C          60.0911   90.3398   11.1957 C.3     1  UNL1        0.0020
     26 C          63.9372   88.9984   16.2923 C.3     1  UNL1        0.0595
     27 C          63.2619   87.6634   16.4008 C.ar    1  UNL1       -0.0143
     28 C          61.9716   87.5346   17.1547 C.ar    1  UNL1        0.0168
     29 C          61.2963   86.1996   17.2632 C.ar    1  UNL1        0.0985
     30 N          61.9114   84.9933   16.6178 N.ar    1  UNL1       -0.2439
     31 C          63.2019   85.1221   15.8638 C.ar    1  UNL1        0.0810
     32 C          63.8169   83.9158   15.2184 C.ar    1  UNL1        0.0191
     33 C          65.1073   84.0446   14.4645 C.ar    1  UNL1        0.0015
     34 C          65.7825   85.3796   14.3560 C.ar    1  UNL1        0.0001
     35 C          65.1674   86.5859   15.0014 C.ar    1  UNL1        0.0012
     36 C          63.8771   86.4571   15.7553 C.ar    1  UNL1        0.0141
@<TRIPOS>BOND
     1    23    24    1
     2    24    25    1
     3    24    22    1
     4    22     1    1
     5     1     2   ar
     6     2     3    2
     7     2     4   ar
     8     4     5    1
     9     4     6   ar
    10     6     7    2
    11     6     8   ar
    12     8     9   ar
    13     9    13    1
    14    13    14    2
    15    13    15   am
    16    15    16    1
    17    16    17    1
    18    17    18    1
    19    18    19    1
    20    18    20    1
    21     9    10   ar
    22    10    26    1
    23    26    27    1
    24    27    28   ar
    25    28    29   ar
    26    29    30   ar
    27    30    31   ar
    28    31    32   ar
    29    32    33   ar
    30    33    34   ar
    31    34    35   ar
    32    35    36   ar
    33    10    11   ar
    34    11    12   ar
    35    12     1   ar
    36    12     8   ar
    37    20    15    1
    38    36    27   ar
    39    36    31   ar
    40    19    21    1
@<TRIPOS>MOLECULE
*****
 36 40 0 0 0
SMALL
GASTEIGER

@<TRIPOS>ATOM
      1 N          63.7570   85.9881   13.9693 N.ar    1  UNL1       -0.2757
      2 C          63.5116   84.7477   13.1623 C.ar    1  UNL1        0.3342
      3 O          63.7300   83.3972   13.7775 O.2     1  UNL1       -0.2462
      4 N          63.0479   84.8578   11.7401 N.ar    1  UNL1       -0.2467
      5 C          62.8025   83.6174   10.9331 C.3     1  UNL1        0.1382
      6 C          62.8295   86.2083   11.1248 C.ar    1  UNL1        0.2663
      7 O          62.3658   86.3184    9.7026 O.2     1  UNL1       -0.2668
      8 C          63.0749   87.4486   11.9318 C.ar    1  UNL1        0.0829
      9 C          62.9464   88.9053   11.5976 C.ar    1  UNL1        0.0624
     10 C          63.3308   89.6954   12.8133 C.ar    1  UNL1        0.0176
     11 S          63.6968   88.7272   13.8988 S.2     1  UNL1       -0.0734
     12 C          63.5387   87.3386   13.3541 C.ar    1  UNL1        0.0982
     13 C          62.5102   89.4722   10.2791 C.2     1  UNL1        0.2495
     14 O          63.3054   90.5684    9.6341 O.2     1  UNL1       -0.2699
     15 N          61.2787   88.9429    9.6057 N.am    1  UNL1       -0.2735
     16 C          60.7226   89.4086    8.2929 C.3     1  UNL1        0.0964
     17 C          59.4874   88.6086    8.0027 C.3     1  UNL1        0.0525
     18 C          59.2802   87.6484    9.1363 C.3     1  UNL1        0.1320
     19 O          58.1621   86.6558    9.2579 O.3     1  UNL1       -0.3827
     20 C          60.3873   87.8550   10.1271 C.3     1  UNL1        0.1228
     21 H          58.2602   86.1579   10.0846 H       1  UNL1        0.2104
     22 C          64.2208   85.8780   15.3915 C.3     1  UNL1        0.1109
     23 C          62.3764   84.7053   16.7963 C.3     1  UNL1        0.0020
     24 C          63.2225   85.9106   16.5106 C.3     1  UNL1        0.0228
     25 C          63.0702   87.1484   17.3440 C.3     1  UNL1        0.0020
     26 C          63.3464   91.1912   12.9240 C.3     1  UNL1        0.0595
     27 C          64.6162   91.9488   12.6714 C.ar    1  UNL1       -0.0143
     28 C          64.9836   92.3520   11.2741 C.ar    1  UNL1        0.0168
     29 C          66.2534   93.1095   11.0215 C.ar    1  UNL1        0.0985
     30 N          67.1557   93.4639   12.1661 N.ar    1  UNL1       -0.2439
     31 C          66.7882   93.0607   13.5635 C.ar    1  UNL1        0.0810
     32 C          67.6905   93.4151   14.7081 C.ar    1  UNL1        0.0191
     33 C          67.3231   93.0120   16.1053 C.ar    1  UNL1        0.0015
     34 C          66.0533   92.2544   16.3580 C.ar    1  UNL1        0.0001
     35 C          65.1510   91.9000   15.2133 C.ar    1  UNL1        0.0012
     36 C          65.5185   92.3032   13.8161 C.ar    1  UNL1        0.0141
@<TRIPOS>BOND
     1    23    24    1
     2    24    25    1
     3    24    22    1
     4    22     1    1
     5     1     2   ar
     6     2     3    2
     7     2     4   ar
     8     4     5    1
     9     4     6   ar
    10     6     7    2
    11     6     8   ar
    12     8     9   ar
    13     9    13    1
    14    13    14    2
    15    13    15   am
    16    15    16    1
    17    16    17    1
    18    17    18    1
    19    18    19    1
    20    18    20    1
    21     9    10   ar
    22    10    26    1
    23    26    27    1
    24    27    28   ar
    25    28    29   ar
    26    29    30   ar
    27    30    31   ar
    28    31    32   ar
    29    32    33   ar
    30    33    34   ar
    31    34    35   ar
    32    35    36   ar
    33    10    11   ar
    34    11    12   ar
    35    12     1   ar
    36    12     8   ar
    37    20    15    1
    38    36    27   ar
    39    36    31   ar
    40    19    21    1
@<TRIPOS>MOLECULE
*****
 36 40 0 0 0
SMALL
GASTEIGER

@<TRIPOS>ATOM
      1 N          65.7118   91.3448   13.2717 N.ar    1  UNL1       -0.2757
      2 C          65.8653   92.5698   12.4198 C.ar    1  UNL1        0.3342
      3 O          66.9152   93.5881   12.7528 O.2     1  UNL1       -0.2462
      4 N          64.9690   92.7765   11.2349 N.ar    1  UNL1       -0.2467
      5 C          65.1226   94.0015   10.3831 C.3     1  UNL1        0.1382
      6 C          63.9192   91.7582   10.9020 C.ar    1  UNL1        0.2663
      7 O          63.0229   91.9649    9.7171 O.2     1  UNL1       -0.2668
      8 C          63.7656   90.5332   11.7538 C.ar    1  UNL1        0.0829
      9 C          62.8279   89.3653   11.6727 C.ar    1  UNL1        0.0624
     10 C          63.1446   88.4368   12.8074 C.ar    1  UNL1        0.0176
     11 S          64.2781   89.0308   13.5898 S.2     1  UNL1       -0.0734
     12 C          64.6619   90.3265   12.9388 C.ar    1  UNL1        0.0982
     13 C          61.7608   89.1617   10.6384 C.2     1  UNL1        0.2495
     14 O          60.6503   90.1605   10.4998 O.2     1  UNL1       -0.2699
     15 N          61.8041   87.9593    9.7427 N.am    1  UNL1       -0.2735
     16 C          60.8125   87.6239    8.6684 C.3     1  UNL1        0.0964
     17 C          61.2422   86.3385    8.0258 C.3     1  UNL1        0.0525
     18 C          62.4994   85.8793    8.7030 C.3     1  UNL1        0.1320
     19 O          63.2735   84.6366    8.3764 O.3     1  UNL1       -0.3827
     20 C          62.8467   86.8811    9.7641 C.3     1  UNL1        0.1228
     21 H          64.0449   84.5732    8.9610 H       1  UNL1        0.2104
     22 C          66.6081   91.1381   14.4566 C.3     1  UNL1        0.1109
     23 C          67.7867   92.7917   16.0772 C.3     1  UNL1        0.0020
     24 C          66.5458   92.0848   15.6184 C.3     1  UNL1        0.0228
     25 C          65.2426   92.3246   16.3214 C.3     1  UNL1        0.0020
     26 C          62.4498   87.1416   13.1070 C.3     1  UNL1        0.0595
     27 C          63.1874   86.0395   13.8079 C.ar    1  UNL1       -0.0143
     28 C          63.8816   86.3111   15.1095 C.ar    1  UNL1        0.0168
     29 C          64.6192   85.2090   15.8105 C.ar    1  UNL1        0.0985
     30 N          64.6625   83.8352   15.2098 N.ar    1  UNL1       -0.2439
     31 C          63.9683   83.5635   13.9081 C.ar    1  UNL1        0.0810
     32 C          64.0117   82.1898   13.3074 C.ar    1  UNL1        0.0191
     33 C          63.3175   81.9182   12.0058 C.ar    1  UNL1        0.0015
     34 C          62.5800   83.0203   11.3049 C.ar    1  UNL1        0.0001
     35 C          62.5366   84.3940   11.9056 C.ar    1  UNL1        0.0012
     36 C          63.2308   84.6657   13.2072 C.ar    1  UNL1        0.0141
@<TRIPOS>BOND
     1    23    24    1
     2    24    25    1
     3    24    22    1
     4    22     1    1
     5     1     2   ar
     6     2     3    2
     7     2     4   ar
     8     4     5    1
     9     4     6   ar
    10     6     7    2
    11     6     8   ar
    12     8     9   ar
    13     9    13    1
    14    13    14    2
    15    13    15   am
    16    15    16    1
    17    16    17    1
    18    17    18    1
    19    18    19    1
    20    18    20    1
    21     9    10   ar
    22    10    26    1
    23    26    27    1
    24    27    28   ar
    25    28    29   ar
    26    29    30   ar
    27    30    31   ar
    28    31    32   ar
    29    32    33   ar
    30    33    34   ar
    31    34    35   ar
    32    35    36   ar
    33    10    11   ar
    34    11    12   ar
    35    12     1   ar
    36    12     8   ar
    37    20    15    1
    38    36    27   ar
    39    36    31   ar
    40    19    21    1
@<TRIPOS>MOLECULE
*****
 36 40 0 0 0
SMALL
GASTEIGER

@<TRIPOS>ATOM
      1 N          63.6776   85.2741   14.7969 N.ar    1  UNL1       -0.2757
      2 C          63.3189   83.8640   14.4320 C.ar    1  UNL1        0.3342
      3 O          63.5200   82.7581   15.4253 O.2     1  UNL1       -0.2462
      4 N          62.7592   83.5599   13.0740 N.ar    1  UNL1       -0.2467
      5 C          62.4006   82.1498   12.7093 C.3     1  UNL1        0.1382
      6 C          62.5582   84.6658   12.0808 C.ar    1  UNL1        0.2663
      7 O          61.9985   84.3617   10.7228 O.2     1  UNL1       -0.2668
      8 C          62.9168   86.0758   12.4456 C.ar    1  UNL1        0.0829
      9 C          62.8304   87.3634   11.6809 C.ar    1  UNL1        0.0624
     10 C          63.3367   88.4633   12.5663 C.ar    1  UNL1        0.0176
     11 S          63.7360   87.8555   13.8782 S.2     1  UNL1       -0.0734
     12 C          63.4765   86.3800   13.8036 C.ar    1  UNL1        0.0982
     13 C          62.3262   87.5230   10.2772 C.2     1  UNL1        0.2495
     14 O          62.8953   86.6791    9.1754 O.2     1  UNL1       -0.2699
     15 N          61.2529   88.5264    9.9753 N.am    1  UNL1       -0.2735
     16 C          60.6523   88.7966    8.6277 C.3     1  UNL1        0.0964
     17 C          59.6199   89.8730    8.7876 C.3     1  UNL1        0.0525
     18 C          59.5824   90.2680   10.2342 C.3     1  UNL1        0.1320
     19 O          58.6920   91.3120   10.8403 O.3     1  UNL1       -0.3827
     20 C          60.5917   89.4358   10.9683 C.3     1  UNL1        0.1228
     21 H          58.8663   91.3723   11.7927 H       1  UNL1        0.2104
     22 C          64.2373   85.5782   16.1549 C.3     1  UNL1        0.1109
     23 C          63.4336   87.9541   16.8328 C.3     1  UNL1        0.0020
     24 C          63.4861   86.4774   17.0915 C.3     1  UNL1        0.0228
     25 C          62.7876   85.9000   18.2867 C.3     1  UNL1        0.0020
     26 C          63.4276   89.9159   12.2035 C.3     1  UNL1        0.0595
     27 C          64.2212   90.8552   13.0625 C.ar    1  UNL1       -0.0143
     28 C          64.2730   90.6510   14.5476 C.ar    1  UNL1        0.0168
     29 C          65.0665   91.5903   15.4066 C.ar    1  UNL1        0.0985
     30 N          65.8083   92.7339   14.7806 N.ar    1  UNL1       -0.2439
     31 C          65.7565   92.9382   13.2954 C.ar    1  UNL1        0.0810
     32 C          66.4982   94.0817   12.6693 C.ar    1  UNL1        0.0191
     33 C          66.4465   94.2860   11.1842 C.ar    1  UNL1        0.0015
     34 C          65.6529   93.3466   10.3252 C.ar    1  UNL1        0.0001
     35 C          64.9112   92.2031   10.9513 C.ar    1  UNL1        0.0012
     36 C          64.9630   91.9988   12.4364 C.ar    1  UNL1        0.0141
@<TRIPOS>BOND
     1    23    24    1
     2    24    25    1
     3    24    22    1
     4    22     1    1
     5     1     2   ar
     6     2     3    2
     7     2     4   ar
     8     4     5    1
     9     4     6   ar
    10     6     7    2
    11     6     8   ar
    12     8     9   ar
    13     9    13    1
    14    13    14    2
    15    13    15   am
    16    15    16    1
    17    16    17    1
    18    17    18    1
    19    18    19    1
    20    18    20    1
    21     9    10   ar
    22    10    26    1
    23    26    27    1
    24    27    28   ar
    25    28    29   ar
    26    29    30   ar
    27    30    31   ar
    28    31    32   ar
    29    32    33   ar
    30    33    34   ar
    31    34    35   ar
    32    35    36   ar
    33    10    11   ar
    34    11    12   ar
    35    12     1   ar
    36    12     8   ar
    37    20    15    1
    38    36    27   ar
    39    36    31   ar
    40    19    21    1
