@<TRIPOS>MOLECULE
*****
 32 34 0 0 0
SMALL
GASTEIGER

@<TRIPOS>ATOM
      1 C          64.1747   83.7217   13.4644 C.ar    1  UNL1        0.2031
      2 N          64.7096   85.1148   13.6168 N.ar    1  UNL1       -0.1927
      3 C          64.2545   85.9720   14.7605 C.ar    1  UNL1        0.2187
      4 N          63.2645   85.4360   15.7519 N.ar    1  UNL1       -0.2057
      5 C          62.7297   84.0429   15.5995 C.ar    1  UNL1        0.1799
      6 C          63.1847   83.1858   14.4558 C.ar    1  UNL1        0.3398
      7 N          62.6499   81.7927   14.3033 N.pl3   1  UNL1        0.0855
      8 O          61.1688   81.5557   14.2858 O.2     1  UNL1        0.0416
      9 O          63.5961   80.6366   14.1685 O.co2   1  UNL1       -0.5759
     10 N          64.6297   82.8645   12.3206 N.pl3   1  UNL1       -0.3131
     11 H          65.4557   82.3348   12.4007 H       1  UNL1        0.1484
     12 C          63.8263   82.8144   11.0550 C.3     1  UNL1        0.0883
     13 C          61.7856   86.5266    9.5367 C.3     1  UNL1        0.0160
     14 C          62.7662   85.7999    8.6648 C.3     1  UNL1        0.0014
     15 C          63.4465   84.5625    9.1709 C.3     1  UNL1        0.0017
     16 C          63.1461   84.0518   10.5489 C.3     1  UNL1        0.0196
     17 C          62.1655   84.7785   11.4208 C.3     1  UNL1        0.0017
     18 C          61.4853   86.0159   10.9147 C.3     1  UNL1        0.0014
     19 C          61.1054   87.7640    9.0307 C.3     1  UNL1        0.0721
     20 C          59.4499   88.8812    7.3690 C.3     1  UNL1        0.0897
     21 N          59.9808   87.6516    8.0445 N.3     1  UNL1       -0.2703
     22 C          59.3870   86.3096    7.7338 C.3     1  UNL1        0.0897
     23 N          64.7894   87.3650   14.9130 N.pl3   1  UNL1       -0.2990
     24 H          65.7544   87.5103   15.0422 H       1  UNL1        0.1500
     25 C          63.8538   88.5367   14.8684 C.3     1  UNL1        0.1173
     26 C          63.8386   89.4392   13.6704 C.ar    1  UNL1        0.0080
     27 C          63.1082   89.0239   12.4278 C.ar    1  UNL1       -0.0018
     28 C          63.0930   89.9264   11.2297 C.ar    1  UNL1       -0.0002
     29 C          63.8082   91.2442   11.2743 C.ar    1  UNL1        0.0008
     30 C          64.5386   91.6594   12.5170 C.ar    1  UNL1        0.0111
     31 C          64.5538   90.7570   13.7150 C.ar    1  UNL1        0.0553
     32 CL         65.2841   91.1722   14.9575 Cl      1  UNL1       -0.0825
@<TRIPOS>UNITY_ATOM_ATTR
7 1
charge 1
9 1
charge -1
@<TRIPOS>BOND
     1    20    21    1
     2    21    22    1
     3    21    19    1
     4    19    13    1
     5    13    14    1
     6    14    15    1
     7    15    16    1
     8    16    12    1
     9    12    10    1
    10    10     1    1
    11     1     2   ar
    12     2     3   ar
    13     3    23    1
    14    23    25    1
    15    25    26    1
    16    26    27   ar
    17    27    28   ar
    18    28    29   ar
    19    29    30   ar
    20    30    31   ar
    21    31    32    1
    22     3     4   ar
    23     4     5   ar
    24     5     6   ar
    25     6     7    1
    26     7     8    2
    27     7     9    1
    28    16    17    1
    29    17    18    1
    30    18    13    1
    31     6     1   ar
    32    31    26   ar
    33    10    11    1
    34    23    24    1
@<TRIPOS>MOLECULE
*****
 32 34 0 0 0
SMALL
GASTEIGER

@<TRIPOS>ATOM
      1 C          65.0278   91.5914   13.5988 C.ar    1  UNL1        0.2031
      2 N          63.9457   91.2033   12.6352 N.ar    1  UNL1       -0.1927
      3 C          64.0725   91.5567   11.1829 C.ar    1  UNL1        0.2187
      4 N          65.2815   92.2981   10.6943 N.ar    1  UNL1       -0.2057
      5 C          66.3636   92.6861   11.6578 C.ar    1  UNL1        0.1799
      6 C          66.2367   92.3327   13.1101 C.ar    1  UNL1        0.3398
      7 N          67.3188   92.7207   14.0737 N.pl3   1  UNL1        0.0855
      8 O          66.9763   93.4853   15.3179 O.2     1  UNL1        0.0416
      9 O          68.7434   92.3442   13.7930 O.co2   1  UNL1       -0.5759
     10 N          64.9010   91.2380   15.0510 N.pl3   1  UNL1       -0.3131
     11 H          65.6077   91.4991   15.6847 H       1  UNL1        0.1484
     12 C          63.6974   90.4868   15.5377 C.3     1  UNL1        0.0883
     13 C          63.8015   85.9955   15.7977 C.3     1  UNL1        0.0160
     14 C          64.4350   86.6941   14.6313 C.3     1  UNL1        0.0014
     15 C          64.4003   88.1912   14.5447 C.3     1  UNL1        0.0017
     16 C          63.7321   88.9897   15.6244 C.3     1  UNL1        0.0196
     17 C          63.0986   88.2911   16.7908 C.3     1  UNL1        0.0017
     18 C          63.1333   86.7940   16.8775 C.3     1  UNL1        0.0014
     19 C          63.8363   84.4984   15.8844 C.3     1  UNL1        0.0721
     20 C          64.4710   83.5607   13.5460 C.3     1  UNL1        0.0897
     21 N          63.4966   83.6694   14.6813 N.3     1  UNL1       -0.2703
     22 C          62.1826   82.9491   14.6135 C.3     1  UNL1        0.0897
     23 N          62.9904   91.1687   10.2193 N.pl3   1  UNL1       -0.2990
     24 H          63.0745   91.3991    9.2659 H       1  UNL1        0.1500
     25 C          61.7801   90.4298   10.7085 C.3     1  UNL1        0.1173
     26 C          61.6949   88.9408   10.5483 C.ar    1  UNL1        0.0080
     27 C          62.4425   88.0415   11.4875 C.ar    1  UNL1       -0.0018
     28 C          62.3573   86.5525   11.3274 C.ar    1  UNL1       -0.0002
     29 C          61.5245   85.9628   10.2280 C.ar    1  UNL1        0.0008
     30 C          60.7769   86.8623    9.2887 C.ar    1  UNL1        0.0111
     31 C          60.8621   88.3512    9.4489 C.ar    1  UNL1        0.0553
     32 CL         60.1144   89.2505    8.5096 Cl      1  UNL1       -0.0825
@<TRIPOS>UNITY_ATOM_ATTR
7 1
charge 1
9 1
charge -1
@<TRIPOS>BOND
     1    20    21    1
     2    21    22    1
     3    21    19    1
     4    19    13    1
     5    13    14    1
     6    14    15    1
     7    15    16    1
     8    16    12    1
     9    12    10    1
    10    10     1    1
    11     1     2   ar
    12     2     3   ar
    13     3    23    1
    14    23    25    1
    15    25    26    1
    16    26    27   ar
    17    27    28   ar
    18    28    29   ar
    19    29    30   ar
    20    30    31   ar
    21    31    32    1
    22     3     4   ar
    23     4     5   ar
    24     5     6   ar
    25     6     7    1
    26     7     8    2
    27     7     9    1
    28    16    17    1
    29    17    18    1
    30    18    13    1
    31     6     1   ar
    32    31    26   ar
    33    10    11    1
    34    23    24    1
@<TRIPOS>MOLECULE
*****
 32 34 0 0 0
SMALL
GASTEIGER

@<TRIPOS>ATOM
      1 C          65.0066   91.6497   13.3649 C.ar    1  UNL1        0.2031
      2 N          63.8892   91.2306   12.4560 N.ar    1  UNL1       -0.1927
      3 C          63.9469   91.5624   10.9943 C.ar    1  UNL1        0.2187
      4 N          65.1219   92.3132   10.4414 N.ar    1  UNL1       -0.2057
      5 C          66.2392   92.7323   11.3502 C.ar    1  UNL1        0.1799
      6 C          66.1816   92.4005   12.8120 C.ar    1  UNL1        0.3398
      7 N          67.2989   92.8196   13.7208 N.pl3   1  UNL1        0.0855
      8 O          67.0367   93.7914   14.8329 O.2     1  UNL1        0.0416
      9 O          68.6784   92.2667   13.5175 O.co2   1  UNL1       -0.5759
     10 N          64.9489   91.3180   14.8266 N.pl3   1  UNL1       -0.3131
     11 H          65.7046   91.5488   15.4139 H       1  UNL1        0.1484
     12 C          63.7400   90.6345   15.3934 C.3     1  UNL1        0.0883
     13 C          63.7214   86.1653   15.9186 C.3     1  UNL1        0.0160
     14 C          64.3904   86.7772   14.7237 C.3     1  UNL1        0.0014
     15 C          64.3966   88.2669   14.5486 C.3     1  UNL1        0.0017
     16 C          63.7338   89.1447   15.5685 C.3     1  UNL1        0.0196
     17 C          63.0648   88.5328   16.7634 C.3     1  UNL1        0.0017
     18 C          63.0586   87.0430   16.9385 C.3     1  UNL1        0.0014
     19 C          63.7152   84.6755   16.0937 C.3     1  UNL1        0.0721
     20 C          62.1218   83.2038   14.6636 C.3     1  UNL1        0.0897
     21 N          63.4834   83.7823   14.9112 N.3     1  UNL1       -0.2703
     22 C          64.6134   83.4676   13.9761 C.3     1  UNL1        0.0897
     23 N          62.8296   91.1434   10.0855 N.pl3   1  UNL1       -0.2990
     24 H          62.8677   91.3606    9.1260 H       1  UNL1        0.1500
     25 C          61.6541   90.3933   10.6385 C.3     1  UNL1        0.1173
     26 C          61.1898   89.1312    9.9741 C.ar    1  UNL1        0.0080
     27 C          60.1998   89.1965    8.8490 C.ar    1  UNL1       -0.0018
     28 C          59.7354   87.9344    8.1845 C.ar    1  UNL1       -0.0002
     29 C          60.2609   86.6071    8.6451 C.ar    1  UNL1        0.0008
     30 C          61.2509   86.5419    9.7702 C.ar    1  UNL1        0.0111
     31 C          61.7153   87.8040   10.4347 C.ar    1  UNL1        0.0553
     32 CL         62.7052   87.7387   11.5597 Cl      1  UNL1       -0.0825
@<TRIPOS>UNITY_ATOM_ATTR
7 1
charge 1
9 1
charge -1
@<TRIPOS>BOND
     1    20    21    1
     2    21    22    1
     3    21    19    1
     4    19    13    1
     5    13    14    1
     6    14    15    1
     7    15    16    1
     8    16    12    1
     9    12    10    1
    10    10     1    1
    11     1     2   ar
    12     2     3   ar
    13     3    23    1
    14    23    25    1
    15    25    26    1
    16    26    27   ar
    17    27    28   ar
    18    28    29   ar
    19    29    30   ar
    20    30    31   ar
    21    31    32    1
    22     3     4   ar
    23     4     5   ar
    24     5     6   ar
    25     6     7    1
    26     7     8    2
    27     7     9    1
    28    16    17    1
    29    17    18    1
    30    18    13    1
    31     6     1   ar
    32    31    26   ar
    33    10    11    1
    34    23    24    1
@<TRIPOS>MOLECULE
*****
 32 34 0 0 0
SMALL
GASTEIGER

@<TRIPOS>ATOM
      1 C          63.1867   89.7941   13.0566 C.ar    1  UNL1        0.2031
      2 N          62.0805   89.1604   12.2660 N.ar    1  UNL1       -0.1927
      3 C          61.7261   89.6952   10.9101 C.ar    1  UNL1        0.2187
      4 N          62.4779   90.8637   10.3449 N.ar    1  UNL1       -0.2057
      5 C          63.5840   91.4974   11.1354 C.ar    1  UNL1        0.1799
      6 C          63.9384   90.9625   12.4913 C.ar    1  UNL1        0.3398
      7 N          65.0445   91.5961   13.2819 N.pl3   1  UNL1        0.0855
      8 O          64.8674   91.8493   14.7497 O.2     1  UNL1        0.0416
      9 O          66.3277   91.9765   12.6046 O.co2   1  UNL1       -0.5759
     10 N          63.5410   89.2592   14.4124 N.pl3   1  UNL1       -0.3131
     11 H          63.1637   89.6766   15.2203 H       1  UNL1        0.1484
     12 C          64.4704   88.0885   14.5375 C.3     1  UNL1        0.0883
     13 C          62.8354   83.8972   14.4368 C.3     1  UNL1        0.0160
     14 C          63.3105   84.4860   15.7320 C.3     1  UNL1        0.0014
     15 C          63.8555   85.8831   15.7655 C.3     1  UNL1        0.0017
     16 C          63.9254   86.6914   14.5039 C.3     1  UNL1        0.0196
     17 C          63.4503   86.1026   13.2087 C.3     1  UNL1        0.0017
     18 C          62.9053   84.7055   13.1752 C.3     1  UNL1        0.0014
     19 C          62.2905   82.5001   14.4032 C.3     1  UNL1        0.0721
     20 C          64.2290   81.7658   12.8371 C.3     1  UNL1        0.0897
     21 N          62.9287   81.4671   13.5226 N.3     1  UNL1       -0.2703
     22 C          62.2666   80.1352   13.3276 C.3     1  UNL1        0.0897
     23 N          60.6200   89.0616   10.1196 N.pl3   1  UNL1       -0.2990
     24 H          60.0403   89.6180    9.5507 H       1  UNL1        0.1500
     25 C          60.3971   87.5802   10.1957 C.3     1  UNL1        0.1173
     26 C          61.0732   86.6686    9.2149 C.ar    1  UNL1        0.0080
     27 C          62.4662   86.1805    9.4818 C.ar    1  UNL1       -0.0018
     28 C          63.1423   85.2689    8.5010 C.ar    1  UNL1       -0.0002
     29 C          62.4254   84.8455    7.2533 C.ar    1  UNL1        0.0008
     30 C          61.0323   85.3337    6.9864 C.ar    1  UNL1        0.0111
     31 C          60.3563   86.2453    7.9672 C.ar    1  UNL1        0.0553
     32 CL         58.9633   86.7334    7.7003 Cl      1  UNL1       -0.0825
@<TRIPOS>UNITY_ATOM_ATTR
7 1
charge 1
9 1
charge -1
@<TRIPOS>BOND
     1    20    21    1
     2    21    22    1
     3    21    19    1
     4    19    13    1
     5    13    14    1
     6    14    15    1
     7    15    16    1
     8    16    12    1
     9    12    10    1
    10    10     1    1
    11     1     2   ar
    12     2     3   ar
    13     3    23    1
    14    23    25    1
    15    25    26    1
    16    26    27   ar
    17    27    28   ar
    18    28    29   ar
    19    29    30   ar
    20    30    31   ar
    21    31    32    1
    22     3     4   ar
    23     4     5   ar
    24     5     6   ar
    25     6     7    1
    26     7     8    2
    27     7     9    1
    28    16    17    1
    29    17    18    1
    30    18    13    1
    31     6     1   ar
    32    31    26   ar
    33    10    11    1
    34    23    24    1
@<TRIPOS>MOLECULE
*****
 32 34 0 0 0
SMALL
GASTEIGER

@<TRIPOS>ATOM
      1 C          61.1207   87.9538    9.6433 C.ar    1  UNL1        0.2031
      2 N          61.8338   88.2860   10.9205 N.ar    1  UNL1       -0.1927
      3 C          61.5459   89.5781   11.6260 C.ar    1  UNL1        0.2187
      4 N          60.5449   90.5379   11.0543 N.ar    1  UNL1       -0.2057
      5 C          59.8318   90.2057    9.7772 C.ar    1  UNL1        0.1799
      6 C          60.1197   88.9136    9.0717 C.ar    1  UNL1        0.3398
      7 N          59.4067   88.5814    7.7945 N.pl3   1  UNL1        0.0855
      8 O          58.6271   87.3049    7.6810 O.2     1  UNL1        0.0416
      9 O          59.4732   89.5256    6.6309 O.co2   1  UNL1       -0.5759
     10 N          61.4086   86.6618    8.9378 N.pl3   1  UNL1       -0.3131
     11 H          60.7109   86.2334    8.3911 H       1  UNL1        0.1484
     12 C          62.7596   86.0225    9.0652 C.3     1  UNL1        0.0883
     13 C          63.4250   82.7510   12.0825 C.3     1  UNL1        0.0160
     14 C          62.7088   84.0065   12.4833 C.3     1  UNL1        0.0014
     15 C          62.4870   85.0970   11.4775 C.3     1  UNL1        0.0017
     16 C          62.9814   84.9320   10.0710 C.3     1  UNL1        0.0196
     17 C          63.6976   83.6765    9.6703 C.3     1  UNL1        0.0017
     18 C          63.9194   82.5860   10.6761 C.3     1  UNL1        0.0014
     19 C          63.6468   81.6605   13.0883 C.3     1  UNL1        0.0721
     20 C          62.5488   79.3094   12.9588 C.3     1  UNL1        0.0897
     21 N          62.5264   80.7287   13.4437 N.3     1  UNL1       -0.2703
     22 C          61.3834   81.2162   14.2840 C.3     1  UNL1        0.0897
     23 N          62.2590   89.9103   12.9031 N.pl3   1  UNL1       -0.2990
     24 H          61.7515   90.2446   13.6776 H       1  UNL1        0.1500
     25 C          63.7454   89.7332   13.0002 C.3     1  UNL1        0.1173
     26 C          64.6221   90.9097   13.3118 C.ar    1  UNL1        0.0080
     27 C          65.1998   91.0712   14.6867 C.ar    1  UNL1       -0.0018
     28 C          66.0766   92.2478   14.9983 C.ar    1  UNL1       -0.0002
     29 C          66.3756   93.2627   13.9352 C.ar    1  UNL1        0.0008
     30 C          65.7979   93.1012   12.5603 C.ar    1  UNL1        0.0111
     31 C          64.9212   91.9247   12.2487 C.ar    1  UNL1        0.0553
     32 CL         64.3435   91.7632   10.8738 Cl      1  UNL1       -0.0825
@<TRIPOS>UNITY_ATOM_ATTR
7 1
charge 1
9 1
charge -1
@<TRIPOS>BOND
     1    20    21    1
     2    21    22    1
     3    21    19    1
     4    19    13    1
     5    13    14    1
     6    14    15    1
     7    15    16    1
     8    16    12    1
     9    12    10    1
    10    10     1    1
    11     1     2   ar
    12     2     3   ar
    13     3    23    1
    14    23    25    1
    15    25    26    1
    16    26    27   ar
    17    27    28   ar
    18    28    29   ar
    19    29    30   ar
    20    30    31   ar
    21    31    32    1
    22     3     4   ar
    23     4     5   ar
    24     5     6   ar
    25     6     7    1
    26     7     8    2
    27     7     9    1
    28    16    17    1
    29    17    18    1
    30    18    13    1
    31     6     1   ar
    32    31    26   ar
    33    10    11    1
    34    23    24    1
@<TRIPOS>MOLECULE
*****
 32 34 0 0 0
SMALL
GASTEIGER

@<TRIPOS>ATOM
      1 C          61.7553   88.2894   10.8497 C.ar    1  UNL1        0.2031
      2 N          62.5299   87.6807   11.9809 N.ar    1  UNL1       -0.1927
      3 C          62.6217   86.1891   12.1100 C.ar    1  UNL1        0.2187
      4 N          61.9389   85.3061   11.1079 N.ar    1  UNL1       -0.2057
      5 C          61.1642   85.9148    9.9767 C.ar    1  UNL1        0.1799
      6 C          61.0724   87.4064    9.8477 C.ar    1  UNL1        0.3398
      7 N          60.2978   88.0151    8.7165 N.pl3   1  UNL1        0.0855
      8 O          59.8413   87.1579    7.5733 O.2     1  UNL1        0.0416
      9 O          59.9797   89.4810    8.7286 O.co2   1  UNL1       -0.5759
     10 N          61.6635   89.7810   10.7206 N.pl3   1  UNL1       -0.3131
     11 H          60.8475   90.2507   11.0085 H       1  UNL1        0.1484
     12 C          62.8148   90.5569   10.1530 C.3     1  UNL1        0.0883
     13 C          65.6905   92.6538   12.9068 C.3     1  UNL1        0.0160
     14 C          65.5986   93.0620   11.4664 C.3     1  UNL1        0.0014
     15 C          64.6400   92.3631   10.5485 C.3     1  UNL1        0.0017
     16 C          63.7734   91.2559   11.0710 C.3     1  UNL1        0.0196
     17 C          63.8653   90.8477   12.5114 C.3     1  UNL1        0.0017
     18 C          64.8239   91.5467   13.4293 C.3     1  UNL1        0.0014
     19 C          66.6491   93.3528   13.8248 C.3     1  UNL1        0.0721
     20 C          68.5917   91.7626   13.1559 C.3     1  UNL1        0.0897
     21 N          67.9874   92.7421   14.1178 N.3     1  UNL1       -0.2703
     22 C          68.7214   93.1108   15.3730 C.3     1  UNL1        0.0897
     23 N          63.3963   85.5804   13.2411 N.pl3   1  UNL1       -0.2990
     24 H          63.4017   86.0154   14.1243 H       1  UNL1        0.1500
     25 C          64.1628   84.3090   13.0266 C.3     1  UNL1        0.1173
     26 C          63.4544   82.9879   13.0810 C.ar    1  UNL1        0.0080
     27 C          62.6446   82.6204   14.2888 C.ar    1  UNL1       -0.0018
     28 C          61.9361   81.2993   14.3432 C.ar    1  UNL1       -0.0002
     29 C          62.0376   80.3458   13.1897 C.ar    1  UNL1        0.0008
     30 C          62.8476   80.7134   11.9818 C.ar    1  UNL1        0.0111
     31 C          63.5559   82.0344   11.9275 C.ar    1  UNL1        0.0553
     32 CL         64.3658   82.4020   10.7196 Cl      1  UNL1       -0.0825
@<TRIPOS>UNITY_ATOM_ATTR
7 1
charge 1
9 1
charge -1
@<TRIPOS>BOND
     1    20    21    1
     2    21    22    1
     3    21    19    1
     4    19    13    1
     5    13    14    1
     6    14    15    1
     7    15    16    1
     8    16    12    1
     9    12    10    1
    10    10     1    1
    11     1     2   ar
    12     2     3   ar
    13     3    23    1
    14    23    25    1
    15    25    26    1
    16    26    27   ar
    17    27    28   ar
    18    28    29   ar
    19    29    30   ar
    20    30    31   ar
    21    31    32    1
    22     3     4   ar
    23     4     5   ar
    24     5     6   ar
    25     6     7    1
    26     7     8    2
    27     7     9    1
    28    16    17    1
    29    17    18    1
    30    18    13    1
    31     6     1   ar
    32    31    26   ar
    33    10    11    1
    34    23    24    1
@<TRIPOS>MOLECULE
*****
 32 34 0 0 0
SMALL
GASTEIGER

@<TRIPOS>ATOM
      1 C          63.8422   87.0564   15.1638 C.ar    1  UNL1        0.2031
      2 N          64.0433   86.0379   14.0810 N.ar    1  UNL1       -0.1927
      3 C          63.6101   84.6182   14.2969 C.ar    1  UNL1        0.2187
      4 N          62.9758   84.2169   15.5957 N.ar    1  UNL1       -0.2057
      5 C          62.7747   85.2353   16.6784 C.ar    1  UNL1        0.1799
      6 C          63.2079   86.6551   16.4625 C.ar    1  UNL1        0.3398
      7 N          63.0069   87.6735   17.5452 N.pl3   1  UNL1        0.0855
      8 O          63.1349   89.1351   17.2332 O.2     1  UNL1        0.0416
      9 O          62.6778   87.2304   18.9400 O.co2   1  UNL1       -0.5759
     10 N          64.2754   88.4761   14.9478 N.pl3   1  UNL1       -0.3131
     11 H          65.0198   88.8490   15.4732 H       1  UNL1        0.1484
     12 C          63.5744   89.3278   13.9313 C.3     1  UNL1        0.0883
     13 C          65.7485   92.7501   11.9791 C.3     1  UNL1        0.0160
     14 C          66.1665   92.2739   13.3387 C.3     1  UNL1        0.0014
     15 C          65.4418   91.1331   13.9894 C.3     1  UNL1        0.0017
     16 C          64.2991   90.4686   13.2806 C.3     1  UNL1        0.0196
     17 C          63.8811   90.9448   11.9210 C.3     1  UNL1        0.0017
     18 C          64.6058   92.0855   11.2703 C.3     1  UNL1        0.0014
     19 C          66.4732   93.8909   11.3284 C.3     1  UNL1        0.0721
     20 C          68.0532   92.2851   10.0341 C.3     1  UNL1        0.0897
     21 N          67.4077   93.6308   10.1842 N.3     1  UNL1       -0.2703
     22 C          67.6966   94.7163    9.1901 C.3     1  UNL1        0.0897
     23 N          63.8111   83.5997   13.2142 N.pl3   1  UNL1       -0.2990
     24 H          64.6404   83.0700   13.1846 H       1  UNL1        0.1500
     25 C          62.7486   83.3884   12.1766 C.3     1  UNL1        0.1173
     26 C          62.6130   84.3520   11.0351 C.ar    1  UNL1        0.0080
     27 C          61.6989   85.5350   11.1568 C.ar    1  UNL1       -0.0018
     28 C          61.5632   86.4986   10.0152 C.ar    1  UNL1       -0.0002
     29 C          62.3416   86.2791    8.7519 C.ar    1  UNL1        0.0008
     30 C          63.2557   85.0960    8.6302 C.ar    1  UNL1        0.0111
     31 C          63.3913   84.1324    9.7718 C.ar    1  UNL1        0.0553
     32 CL         64.3054   82.9494    9.6500 Cl      1  UNL1       -0.0825
@<TRIPOS>UNITY_ATOM_ATTR
7 1
charge 1
9 1
charge -1
@<TRIPOS>BOND
     1    20    21    1
     2    21    22    1
     3    21    19    1
     4    19    13    1
     5    13    14    1
     6    14    15    1
     7    15    16    1
     8    16    12    1
     9    12    10    1
    10    10     1    1
    11     1     2   ar
    12     2     3   ar
    13     3    23    1
    14    23    25    1
    15    25    26    1
    16    26    27   ar
    17    27    28   ar
    18    28    29   ar
    19    29    30   ar
    20    30    31   ar
    21    31    32    1
    22     3     4   ar
    23     4     5   ar
    24     5     6   ar
    25     6     7    1
    26     7     8    2
    27     7     9    1
    28    16    17    1
    29    17    18    1
    30    18    13    1
    31     6     1   ar
    32    31    26   ar
    33    10    11    1
    34    23    24    1
@<TRIPOS>MOLECULE
*****
 32 34 0 0 0
SMALL
GASTEIGER

@<TRIPOS>ATOM
      1 C          61.5230   88.1974   10.9910 C.ar    1  UNL1        0.2031
      2 N          62.2855   86.9652   11.3788 N.ar    1  UNL1       -0.1927
      3 C          62.3505   85.7970   10.4402 C.ar    1  UNL1        0.2187
      4 N          61.6530   85.8609    9.1137 N.ar    1  UNL1       -0.2057
      5 C          60.8905   87.0931    8.7259 C.ar    1  UNL1        0.1799
      6 C          60.8255   88.2613    9.6645 C.ar    1  UNL1        0.3398
      7 N          60.0630   89.4934    9.2767 N.pl3   1  UNL1        0.0855
      8 O          59.5747   89.6610    7.8684 O.2     1  UNL1        0.0416
      9 O          59.7889   90.5581   10.2973 O.co2   1  UNL1       -0.5759
     10 N          61.4579   89.3656   11.9296 N.pl3   1  UNL1       -0.3131
     11 H          60.6504   89.9279   11.9604 H       1  UNL1        0.1484
     12 C          62.6232   89.6771   12.8212 C.3     1  UNL1        0.0883
     13 C          65.6466   92.7685   11.5751 C.3     1  UNL1        0.0160
     14 C          64.6450   92.2564   10.5830 C.3     1  UNL1        0.0014
     15 C          63.6372   91.2260   10.9983 C.3     1  UNL1        0.0017
     16 C          63.6310   90.7076   12.4058 C.3     1  UNL1        0.0196
     17 C          64.6327   91.2197   13.3980 C.3     1  UNL1        0.0017
     18 C          65.6404   92.2501   12.9827 C.3     1  UNL1        0.0014
     19 C          66.6544   93.7990   11.1598 C.3     1  UNL1        0.0721
     20 C          67.6671   94.5817    8.8989 C.3     1  UNL1        0.0897
     21 N          67.5415   93.5463    9.9769 N.3     1  UNL1       -0.2703
     22 C          68.3031   92.2582    9.8721 C.3     1  UNL1        0.0897
     23 N          63.1130   84.5649   10.8280 N.pl3   1  UNL1       -0.2990
     24 H          63.5701   84.0314   10.1383 H       1  UNL1        0.1500
     25 C          63.1790   84.1454   12.2667 C.3     1  UNL1        0.1173
     26 C          62.7979   82.7487   12.6590 C.ar    1  UNL1        0.0080
     27 C          62.0979   82.5003   13.9622 C.ar    1  UNL1       -0.0018
     28 C          61.7168   81.1035   14.3545 C.ar    1  UNL1       -0.0002
     29 C          62.0357   79.9552   13.4436 C.ar    1  UNL1        0.0008
     30 C          62.7357   80.2037   12.1404 C.ar    1  UNL1        0.0111
     31 C          63.1167   81.6004   11.7481 C.ar    1  UNL1        0.0553
     32 CL         63.8167   81.8488   10.4449 Cl      1  UNL1       -0.0825
@<TRIPOS>UNITY_ATOM_ATTR
7 1
charge 1
9 1
charge -1
@<TRIPOS>BOND
     1    20    21    1
     2    21    22    1
     3    21    19    1
     4    19    13    1
     5    13    14    1
     6    14    15    1
     7    15    16    1
     8    16    12    1
     9    12    10    1
    10    10     1    1
    11     1     2   ar
    12     2     3   ar
    13     3    23    1
    14    23    25    1
    15    25    26    1
    16    26    27   ar
    17    27    28   ar
    18    28    29   ar
    19    29    30   ar
    20    30    31   ar
    21    31    32    1
    22     3     4   ar
    23     4     5   ar
    24     5     6   ar
    25     6     7    1
    26     7     8    2
    27     7     9    1
    28    16    17    1
    29    17    18    1
    30    18    13    1
    31     6     1   ar
    32    31    26   ar
    33    10    11    1
    34    23    24    1
@<TRIPOS>MOLECULE
*****
 32 34 0 0 0
SMALL
GASTEIGER

@<TRIPOS>ATOM
      1 C          61.3432   86.5187   10.1247 C.ar    1  UNL1        0.2031
      2 N          62.4224   85.5705   10.5566 N.ar    1  UNL1       -0.1927
      3 C          63.0697   84.6634    9.5525 C.ar    1  UNL1        0.2187
      4 N          62.6377   84.7044    8.1166 N.ar    1  UNL1       -0.2057
      5 C          61.5586   85.6525    7.6848 C.ar    1  UNL1        0.1799
      6 C          60.9113   86.5596    8.6888 C.ar    1  UNL1        0.3398
      7 N          59.8322   87.5077    8.2570 N.pl3   1  UNL1        0.0855
      8 O          58.4150   87.0295    8.1434 O.2     1  UNL1        0.0416
      9 O          60.1702   88.9341    7.9388 O.co2   1  UNL1       -0.5759
     10 N          60.6960   87.4258   11.1287 N.pl3   1  UNL1       -0.3131
     11 H          60.2880   87.0490   11.9416 H       1  UNL1        0.1484
     12 C          60.6703   88.9071   10.8943 C.3     1  UNL1        0.0883
     13 C          64.2721   91.4079   11.9059 C.3     1  UNL1        0.0160
     14 C          63.6959   90.4744   12.9289 C.3     1  UNL1        0.0014
     15 C          62.4953   89.6408   12.5917 C.3     1  UNL1        0.0017
     16 C          61.8709   89.7407   11.2315 C.3     1  UNL1        0.0196
     17 C          62.4471   90.6743   10.2085 C.3     1  UNL1        0.0017
     18 C          63.6477   91.5079   10.5457 C.3     1  UNL1        0.0014
     19 C          65.4727   92.2415   12.2431 C.3     1  UNL1        0.0721
     20 C          67.2417   92.3990   10.3468 C.3     1  UNL1        0.0897
     21 N          66.1610   93.0334   11.1711 N.3     1  UNL1       -0.2703
     22 C          65.7685   94.4599   10.9235 C.3     1  UNL1        0.0897
     23 N          64.1488   83.7153    9.9843 N.pl3   1  UNL1       -0.2990
     24 H          64.6272   83.1758    9.3140 H       1  UNL1        0.1500
     25 C          64.4991   83.5892   11.4374 C.3     1  UNL1        0.1173
     26 C          63.6060   82.8134   12.3596 C.ar    1  UNL1        0.0080
     27 C          63.1846   81.4198   11.9989 C.ar    1  UNL1       -0.0018
     28 C          62.2914   80.6439   12.9211 C.ar    1  UNL1       -0.0002
     29 C          61.8198   81.2617   14.2040 C.ar    1  UNL1        0.0008
     30 C          62.2413   82.6554   14.5647 C.ar    1  UNL1        0.0111
     31 C          63.1344   83.4312   13.6425 C.ar    1  UNL1        0.0553
     32 CL         63.5558   84.8248   14.0032 Cl      1  UNL1       -0.0825
@<TRIPOS>UNITY_ATOM_ATTR
7 1
charge 1
9 1
charge -1
@<TRIPOS>BOND
     1    20    21    1
     2    21    22    1
     3    21    19    1
     4    19    13    1
     5    13    14    1
     6    14    15    1
     7    15    16    1
     8    16    12    1
     9    12    10    1
    10    10     1    1
    11     1     2   ar
    12     2     3   ar
    13     3    23    1
    14    23    25    1
    15    25    26    1
    16    26    27   ar
    17    27    28   ar
    18    28    29   ar
    19    29    30   ar
    20    30    31   ar
    21    31    32    1
    22     3     4   ar
    23     4     5   ar
    24     5     6   ar
    25     6     7    1
    26     7     8    2
    27     7     9    1
    28    16    17    1
    29    17    18    1
    30    18    13    1
    31     6     1   ar
    32    31    26   ar
    33    10    11    1
    34    23    24    1
