@<TRIPOS>MOLECULE
*****
 26 28 0 0 0
SMALL
GASTEIGER

@<TRIPOS>ATOM
      1 O          62.4178   90.2960   10.4228 O.2     1  UNL1       -0.2727
      2 C          63.1452   90.2996   11.7346 C.2     1  UNL1        0.2507
      3 N          63.3569   89.0142   12.4783 N.am    1  UNL1       -0.2751
      4 C          62.8412   87.7253   11.9101 C.3     1  UNL1        0.1108
      5 C          63.0529   86.4400   12.6538 C.3     1  UNL1        0.0942
      6 N          63.7803   86.4435   13.9656 N.3     1  UNL1       -0.2660
      7 C          64.2960   87.7324   14.5338 C.3     1  UNL1        0.0942
      8 C          64.0843   89.0177   13.7901 C.3     1  UNL1        0.1108
      9 C          63.6609   91.5884   12.3027 C.3     1  UNL1        0.2140
     10 N          65.0498   92.0503   11.9744 N.ar    1  UNL1       -0.2155
     11 C          66.1442   92.3251   12.9628 C.ar    1  UNL1        0.2037
     12 N          67.3589   92.7631   12.1994 N.ar    1  UNL1       -0.1391
     13 C          67.0151   92.7591   10.7393 C.ar    1  UNL1        0.4880
     14 N          65.5880   92.3186   10.6003 N.ar    1  UNL1       -0.0790
     15 N          67.9366   93.1304    9.6155 N.pl3   1  UNL1        0.1230
     16 O          68.4132   94.5455    9.4728 O.2     1  UNL1        0.0448
     17 O          68.3816   92.0867    8.6344 O.co2   1  UNL1       -0.5734
     18 C          63.9920   85.1581   14.7093 C.3     1  UNL1        0.0993
     19 C          63.6588   83.8499   14.0557 C.ar    1  UNL1       -0.0052
     20 C          64.5504   83.2990   12.9826 C.ar    1  UNL1       -0.0020
     21 C          64.2171   81.9906   12.3289 C.ar    1  UNL1        0.0120
     22 C          62.9922   81.2332   12.7484 C.ar    1  UNL1        0.0682
     23 CL         62.6590   79.9249   12.0947 Cl      1  UNL1       -0.0814
     24 C          62.1006   81.7841   13.8214 C.ar    1  UNL1        0.0679
     25 CL         60.8757   81.0267   14.2408 Cl      1  UNL1       -0.0814
     26 C          62.4338   83.0924   14.4751 C.ar    1  UNL1        0.0093
@<TRIPOS>UNITY_ATOM_ATTR
15 1
charge 1
17 1
charge -1
@<TRIPOS>BOND
     1     1     2    2
     2     2     9    1
     3     9    10    1
     4    10    11   ar
     5    11    12   ar
     6    12    13   ar
     7    13    15    1
     8    15    16    2
     9    15    17    1
    10    13    14   ar
    11     2     3   am
    12     3     4    1
    13     4     5    1
    14     5     6    1
    15     6    18    1
    16    18    19    1
    17    19    20   ar
    18    20    21   ar
    19    21    22   ar
    20    22    23    1
    21    22    24   ar
    22    24    25    1
    23    24    26   ar
    24     6     7    1
    25     7     8    1
    26    14    10   ar
    27     8     3    1
    28    26    19   ar
@<TRIPOS>MOLECULE
*****
 26 28 0 0 0
SMALL
GASTEIGER

@<TRIPOS>ATOM
      1 O          63.3744   91.7615   16.3868 O.2     1  UNL1       -0.2727
      2 C          63.9438   90.8322   15.3562 C.2     1  UNL1        0.2507
      3 N          63.8476   89.3478   15.5500 N.am    1  UNL1       -0.2751
      4 C          63.1822   88.7928   16.7743 C.3     1  UNL1        0.1108
      5 C          63.0860   87.3085   16.9680 C.3     1  UNL1        0.0942
      6 N          63.6554   86.3792   15.9374 N.3     1  UNL1       -0.2660
      7 C          64.3209   86.9342   14.7130 C.3     1  UNL1        0.0942
      8 C          64.4170   88.4185   14.5193 C.3     1  UNL1        0.1108
      9 C          64.6092   91.3871   14.1318 C.3     1  UNL1        0.2140
     10 N          63.9489   91.2501   12.7919 N.ar    1  UNL1       -0.2155
     11 C          64.4501   91.8230   11.4994 C.ar    1  UNL1        0.2037
     12 N          63.4824   91.4431   10.4179 N.ar    1  UNL1       -0.1391
     13 C          62.3833   90.6354   11.0422 C.ar    1  UNL1        0.4880
     14 N          62.6716   90.5161   12.5094 N.ar    1  UNL1       -0.0790
     15 N          61.2032   90.0498   10.3252 N.pl3   1  UNL1        0.1230
     16 O          59.8612   90.7128   10.4236 O.2     1  UNL1        0.0448
     17 O          61.3648   88.8013    9.5097 O.co2   1  UNL1       -0.5734
     18 C          63.5593   84.8948   16.1312 C.3     1  UNL1        0.0993
     19 C          63.4088   83.9916   14.9432 C.ar    1  UNL1       -0.0052
     20 C          64.3031   84.1645   13.7514 C.ar    1  UNL1       -0.0020
     21 C          64.1526   83.2611   12.5634 C.ar    1  UNL1        0.0120
     22 C          63.1077   82.1850   12.5671 C.ar    1  UNL1        0.0682
     23 CL         62.9572   81.2817   11.3791 Cl      1  UNL1       -0.0814
     24 C          62.2133   82.0121   13.7588 C.ar    1  UNL1        0.0679
     25 CL         61.1685   80.9359   13.7625 Cl      1  UNL1       -0.0814
     26 C          62.3638   82.9153   14.9468 C.ar    1  UNL1        0.0093
@<TRIPOS>UNITY_ATOM_ATTR
15 1
charge 1
17 1
charge -1
@<TRIPOS>BOND
     1     1     2    2
     2     2     9    1
     3     9    10    1
     4    10    11   ar
     5    11    12   ar
     6    12    13   ar
     7    13    15    1
     8    15    16    2
     9    15    17    1
    10    13    14   ar
    11     2     3   am
    12     3     4    1
    13     4     5    1
    14     5     6    1
    15     6    18    1
    16    18    19    1
    17    19    20   ar
    18    20    21   ar
    19    21    22   ar
    20    22    23    1
    21    22    24   ar
    22    24    25    1
    23    24    26   ar
    24     6     7    1
    25     7     8    1
    26    14    10   ar
    27     8     3    1
    28    26    19   ar
@<TRIPOS>MOLECULE
*****
 26 28 0 0 0
SMALL
GASTEIGER

@<TRIPOS>ATOM
      1 O          63.5388   91.6552   15.4038 O.2     1  UNL1       -0.2727
      2 C          63.7776   90.6049   14.3599 C.2     1  UNL1        0.2507
      3 N          63.7627   89.1536   14.7390 N.am    1  UNL1       -0.2751
      4 C          63.5091   88.7527   16.1620 C.3     1  UNL1        0.1108
      5 C          63.4942   87.3015   16.5410 C.3     1  UNL1        0.0942
      6 N          63.7329   86.2512   15.4971 N.3     1  UNL1       -0.2660
      7 C          63.9866   86.6520   14.0741 C.3     1  UNL1        0.0942
      8 C          64.0014   88.1033   13.6951 C.3     1  UNL1        0.1108
      9 C          64.0312   91.0057   12.9369 C.3     1  UNL1        0.2140
     10 N          65.1439   91.9582   12.6129 N.ar    1  UNL1       -0.2155
     11 C          66.3749   92.1893   13.4383 C.ar    1  UNL1        0.2037
     12 N          67.2127   93.2207   12.7422 N.ar    1  UNL1       -0.1391
     13 C          66.4993   93.6270   11.4868 C.ar    1  UNL1        0.4880
     14 N          65.2207   92.8468   11.4069 N.ar    1  UNL1       -0.0790
     15 N          66.9801   94.6364   10.4868 N.pl3   1  UNL1        0.1230
     16 O          66.1557   95.8551   10.1956 O.2     1  UNL1        0.0448
     17 O          68.2854   94.4270    9.7780 O.co2   1  UNL1       -0.5734
     18 C          63.7181   84.7999   15.8762 C.3     1  UNL1        0.0993
     19 C          63.5009   83.7523   14.8249 C.ar    1  UNL1       -0.0052
     20 C          64.4715   83.6169   13.6892 C.ar    1  UNL1       -0.0020
     21 C          64.2543   82.5692   12.6379 C.ar    1  UNL1        0.0120
     22 C          63.0666   81.6570   12.7222 C.ar    1  UNL1        0.0682
     23 CL         62.8495   80.6094   11.6708 Cl      1  UNL1       -0.0814
     24 C          62.0960   81.7924   13.8578 C.ar    1  UNL1        0.0679
     25 CL         60.9083   80.8802   13.9421 Cl      1  UNL1       -0.0814
     26 C          62.3132   82.8400   14.9091 C.ar    1  UNL1        0.0093
@<TRIPOS>UNITY_ATOM_ATTR
15 1
charge 1
17 1
charge -1
@<TRIPOS>BOND
     1     1     2    2
     2     2     9    1
     3     9    10    1
     4    10    11   ar
     5    11    12   ar
     6    12    13   ar
     7    13    15    1
     8    15    16    2
     9    15    17    1
    10    13    14   ar
    11     2     3   am
    12     3     4    1
    13     4     5    1
    14     5     6    1
    15     6    18    1
    16    18    19    1
    17    19    20   ar
    18    20    21   ar
    19    21    22   ar
    20    22    23    1
    21    22    24   ar
    22    24    25    1
    23    24    26   ar
    24     6     7    1
    25     7     8    1
    26    14    10   ar
    27     8     3    1
    28    26    19   ar
@<TRIPOS>MOLECULE
*****
 26 28 0 0 0
SMALL
GASTEIGER

@<TRIPOS>ATOM
      1 O          63.1165   91.5266   16.4302 O.2     1  UNL1       -0.2727
      2 C          63.5858   90.6483   15.3084 C.2     1  UNL1        0.2507
      3 N          63.6418   89.1608   15.4937 N.am    1  UNL1       -0.2751
      4 C          63.2285   88.5516   16.8006 C.3     1  UNL1        0.1108
      5 C          63.2845   87.0642   16.9857 C.3     1  UNL1        0.0942
      6 N          63.7538   86.1859   15.8639 N.3     1  UNL1       -0.2660
      7 C          64.1671   86.7950   14.5570 C.3     1  UNL1        0.0942
      8 C          64.1111   88.2825   14.3719 C.3     1  UNL1        0.1108
      9 C          63.9991   91.2574   14.0015 C.3     1  UNL1        0.2140
     10 N          65.4084   91.7334   13.8083 N.ar    1  UNL1       -0.2155
     11 C          65.9866   92.2843   12.5385 C.ar    1  UNL1        0.2037
     12 N          67.4225   92.6335   12.7963 N.ar    1  UNL1       -0.1391
     13 C          67.7317   92.2983   14.2253 C.ar    1  UNL1        0.4880
     14 N          66.4869   91.7420   14.8507 N.ar    1  UNL1       -0.0790
     15 N          69.0535   92.4863   14.9088 N.pl3   1  UNL1        0.1230
     16 O          69.1151   92.6052   16.4029 O.2     1  UNL1        0.0448
     17 O          70.3139   92.5555   14.0985 O.co2   1  UNL1       -0.5734
     18 C          63.8097   84.6984   16.0492 C.3     1  UNL1        0.0993
     19 C          63.5773   83.7877   14.8801 C.ar    1  UNL1       -0.0052
     20 C          64.4994   83.8346   13.6979 C.ar    1  UNL1       -0.0020
     21 C          64.2669   82.9239   12.5289 C.ar    1  UNL1        0.0120
     22 C          63.1124   81.9664   12.5420 C.ar    1  UNL1        0.0682
     23 CL         62.8799   81.0558   11.3729 Cl      1  UNL1       -0.0814
     24 C          62.1902   81.9196   13.7242 C.ar    1  UNL1        0.0679
     25 CL         61.0357   80.9621   13.7373 Cl      1  UNL1       -0.0814
     26 C          62.4227   82.8302   14.8932 C.ar    1  UNL1        0.0093
@<TRIPOS>UNITY_ATOM_ATTR
15 1
charge 1
17 1
charge -1
@<TRIPOS>BOND
     1     1     2    2
     2     2     9    1
     3     9    10    1
     4    10    11   ar
     5    11    12   ar
     6    12    13   ar
     7    13    15    1
     8    15    16    2
     9    15    17    1
    10    13    14   ar
    11     2     3   am
    12     3     4    1
    13     4     5    1
    14     5     6    1
    15     6    18    1
    16    18    19    1
    17    19    20   ar
    18    20    21   ar
    19    21    22   ar
    20    22    23    1
    21    22    24   ar
    22    24    25    1
    23    24    26   ar
    24     6     7    1
    25     7     8    1
    26    14    10   ar
    27     8     3    1
    28    26    19   ar
@<TRIPOS>MOLECULE
*****
 26 28 0 0 0
SMALL
GASTEIGER

@<TRIPOS>ATOM
      1 O          59.6979   88.4303   12.3084 O.2     1  UNL1       -0.2727
      2 C          60.4451   89.1562   11.2293 C.2     1  UNL1        0.2507
      3 N          61.7014   89.9058   11.5609 N.am    1  UNL1       -0.2751
      4 C          62.2105   89.9293   12.9717 C.3     1  UNL1        0.1108
      5 C          63.4667   90.6789   13.3032 C.3     1  UNL1        0.0942
      6 N          64.2139   91.4048   12.2240 N.3     1  UNL1       -0.2660
      7 C          63.7049   91.3813   10.8133 C.3     1  UNL1        0.0942
      8 C          62.4487   90.6317   10.4817 C.3     1  UNL1        0.1108
      9 C          59.9361   89.1327    9.8185 C.3     1  UNL1        0.2140
     10 N          60.1341   87.9116    8.9700 N.ar    1  UNL1       -0.2155
     11 C          59.0821   87.2313    8.1449 C.ar    1  UNL1        0.2037
     12 N          59.7167   86.0557    7.4626 N.ar    1  UNL1       -0.1391
     13 C          61.1607   86.0095    7.8660 C.ar    1  UNL1        0.4880
     14 N          61.4186   87.1565    8.7976 N.ar    1  UNL1       -0.0790
     15 N          62.1696   84.9946    7.4167 N.pl3   1  UNL1        0.1230
     16 O          63.2409   84.5336    8.3600 O.2     1  UNL1        0.0448
     17 O          62.1073   84.4406    6.0241 O.co2   1  UNL1       -0.5734
     18 C          65.4703   92.1544   12.5557 C.3     1  UNL1        0.0993
     19 C          66.1059   93.0441   11.5290 C.ar    1  UNL1       -0.0052
     20 C          65.8171   94.5161   11.5300 C.ar    1  UNL1       -0.0020
     21 C          66.4529   95.4058   10.5032 C.ar    1  UNL1        0.0120
     22 C          67.3774   94.8236    9.4754 C.ar    1  UNL1        0.0682
     23 CL         68.0131   95.7134    8.4487 Cl      1  UNL1       -0.0814
     24 C          67.6662   93.3517    9.4744 C.ar    1  UNL1        0.0679
     25 CL         68.5907   92.7695    8.4467 Cl      1  UNL1       -0.0814
     26 C          67.0305   92.4620   10.5011 C.ar    1  UNL1        0.0093
@<TRIPOS>UNITY_ATOM_ATTR
15 1
charge 1
17 1
charge -1
@<TRIPOS>BOND
     1     1     2    2
     2     2     9    1
     3     9    10    1
     4    10    11   ar
     5    11    12   ar
     6    12    13   ar
     7    13    15    1
     8    15    16    2
     9    15    17    1
    10    13    14   ar
    11     2     3   am
    12     3     4    1
    13     4     5    1
    14     5     6    1
    15     6    18    1
    16    18    19    1
    17    19    20   ar
    18    20    21   ar
    19    21    22   ar
    20    22    23    1
    21    22    24   ar
    22    24    25    1
    23    24    26   ar
    24     6     7    1
    25     7     8    1
    26    14    10   ar
    27     8     3    1
    28    26    19   ar
@<TRIPOS>MOLECULE
*****
 26 28 0 0 0
SMALL
GASTEIGER

@<TRIPOS>ATOM
      1 O          60.5703   88.5211    9.0713 O.2     1  UNL1       -0.2727
      2 C          61.2207   88.3343   10.4100 C.2     1  UNL1        0.2507
      3 N          62.2214   89.3366   10.9041 N.am    1  UNL1       -0.2751
      4 C          62.5716   90.5256   10.0595 C.3     1  UNL1        0.1108
      5 C          63.5723   91.5279   10.5537 C.3     1  UNL1        0.0942
      6 N          64.2226   91.3410   11.8924 N.3     1  UNL1       -0.2660
      7 C          63.8723   90.1520   12.7370 C.3     1  UNL1        0.0942
      8 C          62.8717   89.1497   12.2428 C.3     1  UNL1        0.1108
      9 C          60.8704   87.1452   11.2546 C.3     1  UNL1        0.2140
     10 N          61.8180   85.9861   11.3479 N.ar    1  UNL1       -0.2155
     11 C          62.3692   85.2029   10.1934 C.ar    1  UNL1        0.2037
     12 N          63.2727   84.1395   10.7440 N.ar    1  UNL1       -0.1391
     13 C          63.2798   84.2657   12.2388 C.ar    1  UNL1        0.4880
     14 N          62.3808   85.4069   12.6119 N.ar    1  UNL1       -0.0790
     15 N          64.0506   83.4022   13.1927 N.pl3   1  UNL1        0.1230
     16 O          64.0772   81.9144   13.0038 O.2     1  UNL1        0.0448
     17 O          64.7949   84.0264   14.3358 O.co2   1  UNL1       -0.5734
     18 C          65.2233   92.3433   12.3865 C.3     1  UNL1        0.0993
     19 C          65.9266   93.2430   11.4140 C.ar    1  UNL1       -0.0052
     20 C          65.6751   94.7215   11.4430 C.ar    1  UNL1       -0.0020
     21 C          66.3785   95.6212   10.4704 C.ar    1  UNL1        0.0120
     22 C          67.3334   95.0424    9.4688 C.ar    1  UNL1        0.0682
     23 CL         68.0367   95.9421    8.4963 Cl      1  UNL1       -0.0814
     24 C          67.5849   93.5639    9.4398 C.ar    1  UNL1        0.0679
     25 CL         68.5397   92.9851    8.4382 Cl      1  UNL1       -0.0814
     26 C          66.8815   92.6642   10.4123 C.ar    1  UNL1        0.0093
@<TRIPOS>UNITY_ATOM_ATTR
15 1
charge 1
17 1
charge -1
@<TRIPOS>BOND
     1     1     2    2
     2     2     9    1
     3     9    10    1
     4    10    11   ar
     5    11    12   ar
     6    12    13   ar
     7    13    15    1
     8    15    16    2
     9    15    17    1
    10    13    14   ar
    11     2     3   am
    12     3     4    1
    13     4     5    1
    14     5     6    1
    15     6    18    1
    16    18    19    1
    17    19    20   ar
    18    20    21   ar
    19    21    22   ar
    20    22    23    1
    21    22    24   ar
    22    24    25    1
    23    24    26   ar
    24     6     7    1
    25     7     8    1
    26    14    10   ar
    27     8     3    1
    28    26    19   ar
@<TRIPOS>MOLECULE
*****
 26 28 0 0 0
SMALL
GASTEIGER

@<TRIPOS>ATOM
      1 O          62.7274   90.7287   11.1208 O.2     1  UNL1       -0.2727
      2 C          63.3762   90.4075   12.4345 C.2     1  UNL1        0.2507
      3 N          63.5176   88.9796   12.8719 N.am    1  UNL1       -0.2751
      4 C          63.0102   87.8730   11.9956 C.3     1  UNL1        0.1108
      5 C          63.1515   86.4452   12.4330 C.3     1  UNL1        0.0942
      6 N          63.8003   86.1240   13.7467 N.3     1  UNL1       -0.2660
      7 C          64.3078   87.2306   14.6230 C.3     1  UNL1        0.0942
      8 C          64.1664   88.6584   14.1856 C.3     1  UNL1        0.1108
      9 C          63.8837   91.5141   13.3108 C.3     1  UNL1        0.2140
     10 N          65.3390   91.8772   13.2933 N.ar    1  UNL1       -0.2155
     11 C          66.1194   92.3337   12.0964 C.ar    1  UNL1        0.2037
     12 N          67.5322   92.5862   12.5330 N.ar    1  UNL1       -0.1391
     13 C          67.6247   92.2858   13.9998 C.ar    1  UNL1        0.4880
     14 N          66.2693   91.8476   14.4696 N.ar    1  UNL1       -0.0790
     15 N          68.8564   92.4029   14.8477 N.pl3   1  UNL1        0.1230
     16 O          68.7506   92.3094   16.3410 O.2     1  UNL1        0.0448
     17 O          70.1941   92.6136   14.2024 O.co2   1  UNL1       -0.5734
     18 C          63.9417   84.6961   14.1841 C.3     1  UNL1        0.0993
     19 C          63.6991   83.5847   13.2065 C.ar    1  UNL1       -0.0052
     20 C          64.1127   83.7429   11.7733 C.ar    1  UNL1       -0.0020
     21 C          63.8700   82.6314   10.7956 C.ar    1  UNL1        0.0120
     22 C          63.2138   81.3618   11.2511 C.ar    1  UNL1        0.0682
     23 CL         62.9712   80.2504   10.2735 Cl      1  UNL1       -0.0814
     24 C          62.8003   81.2037   12.6843 C.ar    1  UNL1        0.0679
     25 CL         62.1441   79.9341   13.1398 Cl      1  UNL1       -0.0814
     26 C          63.0429   82.3151   13.6619 C.ar    1  UNL1        0.0093
@<TRIPOS>UNITY_ATOM_ATTR
15 1
charge 1
17 1
charge -1
@<TRIPOS>BOND
     1     1     2    2
     2     2     9    1
     3     9    10    1
     4    10    11   ar
     5    11    12   ar
     6    12    13   ar
     7    13    15    1
     8    15    16    2
     9    15    17    1
    10    13    14   ar
    11     2     3   am
    12     3     4    1
    13     4     5    1
    14     5     6    1
    15     6    18    1
    16    18    19    1
    17    19    20   ar
    18    20    21   ar
    19    21    22   ar
    20    22    23    1
    21    22    24   ar
    22    24    25    1
    23    24    26   ar
    24     6     7    1
    25     7     8    1
    26    14    10   ar
    27     8     3    1
    28    26    19   ar
@<TRIPOS>MOLECULE
*****
 26 28 0 0 0
SMALL
GASTEIGER

@<TRIPOS>ATOM
      1 O          62.8710   88.1549   12.4433 O.2     1  UNL1       -0.2727
      2 C          63.8088   88.6317   13.5124 C.2     1  UNL1        0.2507
      3 N          64.4101   90.0033   13.4254 N.am    1  UNL1       -0.2751
      4 C          64.0735   90.8978   12.2694 C.3     1  UNL1        0.1108
      5 C          64.6748   92.2693   12.1825 C.3     1  UNL1        0.0942
      6 N          65.6126   92.7461   13.2516 N.3     1  UNL1       -0.2660
      7 C          65.9492   91.8516   14.4077 C.3     1  UNL1        0.0942
      8 C          65.3480   90.4801   14.4945 C.3     1  UNL1        0.1108
      9 C          64.1454   87.7372   14.6684 C.3     1  UNL1        0.2140
     10 N          64.2170   86.2519   14.4713 N.ar    1  UNL1       -0.2155
     11 C          65.4301   85.3931   14.6739 C.ar    1  UNL1        0.2037
     12 N          65.0509   83.9750   14.3649 N.ar    1  UNL1       -0.1391
     13 C          63.6035   83.9575   13.9714 C.ar    1  UNL1        0.4880
     14 N          63.0881   85.3646   14.0372 N.ar    1  UNL1       -0.0790
     15 N          62.8107   82.7456   13.5807 N.pl3   1  UNL1        0.1230
     16 O          61.7711   82.1970   14.5126 O.2     1  UNL1        0.0448
     17 O          63.0573   82.0822   12.2582 O.co2   1  UNL1       -0.5734
     18 C          66.2139   94.1177   13.1647 C.3     1  UNL1        0.0993
     19 C          66.4541   94.7477   11.8248 C.ar    1  UNL1       -0.0052
     20 C          66.0810   96.1819   11.5927 C.ar    1  UNL1       -0.0020
     21 C          66.3212   96.8119   10.2527 C.ar    1  UNL1        0.0120
     22 C          66.9346   96.0078    9.1450 C.ar    1  UNL1        0.0682
     23 CL         67.1748   96.6378    7.8051 Cl      1  UNL1       -0.0814
     24 C          67.3078   94.5736    9.3772 C.ar    1  UNL1        0.0679
     25 CL         67.9212   93.7694    8.2695 Cl      1  UNL1       -0.0814
     26 C          67.0676   93.9436   10.7170 C.ar    1  UNL1        0.0093
@<TRIPOS>UNITY_ATOM_ATTR
15 1
charge 1
17 1
charge -1
@<TRIPOS>BOND
     1     1     2    2
     2     2     9    1
     3     9    10    1
     4    10    11   ar
     5    11    12   ar
     6    12    13   ar
     7    13    15    1
     8    15    16    2
     9    15    17    1
    10    13    14   ar
    11     2     3   am
    12     3     4    1
    13     4     5    1
    14     5     6    1
    15     6    18    1
    16    18    19    1
    17    19    20   ar
    18    20    21   ar
    19    21    22   ar
    20    22    23    1
    21    22    24   ar
    22    24    25    1
    23    24    26   ar
    24     6     7    1
    25     7     8    1
    26    14    10   ar
    27     8     3    1
    28    26    19   ar
@<TRIPOS>MOLECULE
*****
 26 28 0 0 0
SMALL
GASTEIGER

@<TRIPOS>ATOM
      1 O          62.3836   85.0683   17.4316 O.2     1  UNL1       -0.2727
      2 C          63.2605   85.4551   16.2778 C.2     1  UNL1        0.2507
      3 N          63.5468   86.9022   16.0054 N.am    1  UNL1       -0.2751
      4 C          62.9561   87.9624   16.8869 C.3     1  UNL1        0.1108
      5 C          63.2424   89.4094   16.6146 C.3     1  UNL1        0.0942
      6 N          64.1193   89.7962   15.4607 N.3     1  UNL1       -0.2660
      7 C          64.7100   88.7360   14.5792 C.3     1  UNL1        0.0942
      8 C          64.4237   87.2890   14.8516 C.3     1  UNL1        0.1108
      9 C          63.8512   84.3949   15.3963 C.3     1  UNL1        0.2140
     10 N          63.3381   84.2098   13.9989 N.ar    1  UNL1       -0.2155
     11 C          63.0680   82.8968   13.3257 C.ar    1  UNL1        0.2037
     12 N          62.5680   83.1806   11.9401 N.ar    1  UNL1       -0.1391
     13 C          62.5293   84.6690   11.7571 C.ar    1  UNL1        0.4880
     14 N          63.0053   85.3050   13.0295 N.ar    1  UNL1       -0.0790
     15 N          62.0915   85.3940   10.5192 N.pl3   1  UNL1        0.1230
     16 O          60.8942   86.2964   10.5624 O.2     1  UNL1        0.0448
     17 O          62.8511   85.2166    9.2379 O.co2   1  UNL1       -0.5734
     18 C          64.4056   91.2432   15.1884 C.3     1  UNL1        0.0993
     19 C          65.2380   91.6329   14.0030 C.ar    1  UNL1       -0.0052
     20 C          66.7324   91.6867   14.1211 C.ar    1  UNL1       -0.0020
     21 C          67.5649   92.0764   12.9356 C.ar    1  UNL1        0.0120
     22 C          66.9029   92.4124   11.6322 C.ar    1  UNL1        0.0682
     23 CL         67.7354   92.8021   10.4469 Cl      1  UNL1       -0.0814
     24 C          65.4085   92.3586   11.5142 C.ar    1  UNL1        0.0679
     25 CL         64.7466   92.6946   10.2108 Cl      1  UNL1       -0.0814
     26 C          64.5761   91.9689   12.6995 C.ar    1  UNL1        0.0093
@<TRIPOS>UNITY_ATOM_ATTR
15 1
charge 1
17 1
charge -1
@<TRIPOS>BOND
     1     1     2    2
     2     2     9    1
     3     9    10    1
     4    10    11   ar
     5    11    12   ar
     6    12    13   ar
     7    13    15    1
     8    15    16    2
     9    15    17    1
    10    13    14   ar
    11     2     3   am
    12     3     4    1
    13     4     5    1
    14     5     6    1
    15     6    18    1
    16    18    19    1
    17    19    20   ar
    18    20    21   ar
    19    21    22   ar
    20    22    23    1
    21    22    24   ar
    22    24    25    1
    23    24    26   ar
    24     6     7    1
    25     7     8    1
    26    14    10   ar
    27     8     3    1
    28    26    19   ar
