@<TRIPOS>MOLECULE
*****
 31 35 0 0 0
SMALL
GASTEIGER

@<TRIPOS>ATOM
      1 C          64.6908   89.7571   13.4212 C.ar    1  UNL1        0.0670
      2 C          64.3065   90.6635   12.2896 C.ar    1  UNL1        0.0191
      3 C          64.7987   92.0802   12.2631 C.ar    1  UNL1        0.0203
      4 C          65.6752   92.5904   13.3683 C.ar    1  UNL1        0.0795
      5 C          66.0595   91.6840   14.5000 C.ar    1  UNL1        0.0396
      6 C          66.9298   92.4620   15.4419 C.ar    1  UNL1        0.1216
      7 N          67.0834   93.8493   14.8925 N.ar    1  UNL1       -0.1677
      8 N          66.3080   93.9287   13.6109 N.ar    1  UNL1       -0.2494
      9 C          65.5673   90.2673   14.5264 C.ar    1  UNL1        0.0207
     10 O          62.8085   88.7832   11.2979 O.2     1  UNL1       -0.2666
     11 C          63.2574   87.8534   12.3861 C.ar    1  UNL1        0.2648
     12 C          62.7652   86.4367   12.4125 C.ar    1  UNL1        0.0612
     13 C          63.2141   85.5069   13.5007 C.ar    1  UNL1        0.0071
     14 C          64.1553   85.9939   14.5624 C.ar    1  UNL1        0.0193
     15 C          64.6475   87.4107   14.5359 C.ar    1  UNL1        0.0829
     16 N          64.1986   88.3404   13.4477 N.ar    1  UNL1       -0.2731
     17 C          62.7219   84.0903   13.5272 C.ar    1  UNL1        0.0108
     18 C          62.1753   83.5099   14.7977 C.ar    1  UNL1        0.0017
     19 C          61.6830   82.0932   14.8242 C.ar    1  UNL1        0.0114
     20 C          61.7375   81.2569   13.5802 C.ar    1  UNL1        0.0585
     21 CL         61.2452   79.8402   13.6066 Cl      1  UNL1       -0.0822
     22 C          62.2841   81.8374   12.3096 C.ar    1  UNL1        0.0228
     23 C          62.7764   83.2540   12.2831 C.ar    1  UNL1        0.0585
     24 CL         63.3230   83.8344   11.0126 Cl      1  UNL1       -0.0822
     25 C          66.1867   95.1345   12.7270 C.3     1  UNL1        0.1447
     26 C          65.8203   94.9712   11.2817 C.3     1  UNL1        0.0988
     27 N          66.8001   94.3611   10.3238 N.3     1  UNL1       -0.2710
     28 C          67.3333   92.9602   10.3809 C.3     1  UNL1        0.0722
     29 C          68.2815   92.7781    9.2329 C.3     1  UNL1        0.0188
     30 C          68.3343   94.0663    8.4664 C.3     1  UNL1        0.0188
     31 C          67.4187   95.0447    9.1406 C.3     1  UNL1        0.0722
@<TRIPOS>BOND
     1    10    11    2
     2    11    12   ar
     3    12    13   ar
     4    13    17    1
     5    17    18   ar
     6    18    19   ar
     7    19    20   ar
     8    20    21    1
     9    20    22   ar
    10    22    23   ar
    11    23    24    1
    12    13    14   ar
    13    14    15   ar
    14    15    16   ar
    15    16     1    1
    16     1     2   ar
    17     2     3   ar
    18     3     4   ar
    19     4     5   ar
    20     5     6   ar
    21     6     7   ar
    22     7     8   ar
    23     8    25    1
    24    25    26    1
    25    26    27    1
    26    27    28    1
    27    28    29    1
    28    29    30    1
    29    30    31    1
    30     5     9   ar
    31    16    11   ar
    32     9     1   ar
    33    23    17   ar
    34     8     4   ar
    35    31    27    1
@<TRIPOS>MOLECULE
*****
 31 35 0 0 0
SMALL
GASTEIGER

@<TRIPOS>ATOM
      1 C          63.6722   86.7526   13.6665 C.ar    1  UNL1        0.0670
      2 C          64.0219   87.0047   15.1032 C.ar    1  UNL1        0.0191
      3 C          64.1746   88.4109   15.6022 C.ar    1  UNL1        0.0203
      4 C          63.9776   89.5651   14.6646 C.ar    1  UNL1        0.0795
      5 C          63.6279   89.3129   13.2279 C.ar    1  UNL1        0.0396
      6 C          63.4956   90.6409   12.5431 C.ar    1  UNL1        0.1216
      7 N          63.7635   91.7138   13.5566 N.ar    1  UNL1       -0.1677
      8 N          64.0614   91.0489   14.8678 N.ar    1  UNL1       -0.2494
      9 C          63.4752   87.9067   12.7289 C.ar    1  UNL1        0.0207
     10 O          61.5300   86.0930   11.6726 O.2     1  UNL1       -0.2666
     11 C          62.4484   85.0164   12.1704 C.ar    1  UNL1        0.2648
     12 C          62.2956   83.6102   11.6713 C.ar    1  UNL1        0.0612
     13 C          63.2140   82.5337   12.1692 C.ar    1  UNL1        0.0071
     14 C          64.2851   82.8635   13.1662 C.ar    1  UNL1        0.0193
     15 C          64.4378   84.2698   13.6653 C.ar    1  UNL1        0.0829
     16 N          63.5195   85.3463   13.1674 N.ar    1  UNL1       -0.2731
     17 C          63.0612   81.1275   11.6701 C.ar    1  UNL1        0.0108
     18 C          63.2855   80.8180   10.2197 C.ar    1  UNL1        0.0017
     19 C          63.1328   79.4117    9.7205 C.ar    1  UNL1        0.0114
     20 C          62.7556   78.3150   10.6718 C.ar    1  UNL1        0.0585
     21 CL         62.6029   76.9088   10.1727 Cl      1  UNL1       -0.0822
     22 C          62.5313   78.6246   12.1223 C.ar    1  UNL1        0.0228
     23 C          62.6841   80.0308   12.6214 C.ar    1  UNL1        0.0585
     24 CL         62.4597   80.3403   14.0719 Cl      1  UNL1       -0.0822
     25 C          64.3861   91.7455   16.1559 C.3     1  UNL1        0.1447
     26 C          65.4567   92.7956   16.1915 C.3     1  UNL1        0.0988
     27 N          66.7765   92.5441   15.5246 N.3     1  UNL1       -0.2710
     28 C          68.1279   92.7047   16.1553 C.3     1  UNL1        0.0722
     29 C          69.1632   92.3477   15.1303 C.3     1  UNL1        0.0188
     30 C          68.4516   91.9665   13.8661 C.3     1  UNL1        0.0188
     31 C          66.9765   92.0878   14.1098 C.3     1  UNL1        0.0722
@<TRIPOS>BOND
     1    10    11    2
     2    11    12   ar
     3    12    13   ar
     4    13    17    1
     5    17    18   ar
     6    18    19   ar
     7    19    20   ar
     8    20    21    1
     9    20    22   ar
    10    22    23   ar
    11    23    24    1
    12    13    14   ar
    13    14    15   ar
    14    15    16   ar
    15    16     1    1
    16     1     2   ar
    17     2     3   ar
    18     3     4   ar
    19     4     5   ar
    20     5     6   ar
    21     6     7   ar
    22     7     8   ar
    23     8    25    1
    24    25    26    1
    25    26    27    1
    26    27    28    1
    27    28    29    1
    28    29    30    1
    29    30    31    1
    30     5     9   ar
    31    16    11   ar
    32     9     1   ar
    33    23    17   ar
    34     8     4   ar
    35    31    27    1
@<TRIPOS>MOLECULE
*****
 31 35 0 0 0
SMALL
GASTEIGER

@<TRIPOS>ATOM
      1 C          63.6942   86.8114   13.5969 C.ar    1  UNL1        0.0670
      2 C          64.0504   87.0688   15.0311 C.ar    1  UNL1        0.0191
      3 C          64.2068   88.4769   15.5239 C.ar    1  UNL1        0.0203
      4 C          64.0070   89.6275   14.5825 C.ar    1  UNL1        0.0795
      5 C          63.6508   89.3701   13.1484 C.ar    1  UNL1        0.0396
      6 C          63.5169   90.6955   12.4589 C.ar    1  UNL1        0.1216
      7 N          63.7903   91.7721   13.4670 N.ar    1  UNL1       -0.1677
      8 N          64.0932   91.1121   14.7795 N.ar    1  UNL1       -0.2494
      9 C          63.4944   87.9620   12.6556 C.ar    1  UNL1        0.0207
     10 O          65.4898   84.6478   14.6433 O.2     1  UNL1       -0.2666
     11 C          64.4356   84.3215   13.6273 C.ar    1  UNL1        0.2648
     12 C          64.2793   82.9135   13.1344 C.ar    1  UNL1        0.0612
     13 C          63.2251   82.5871   12.1184 C.ar    1  UNL1        0.0071
     14 C          62.3273   83.6689   11.5951 C.ar    1  UNL1        0.0193
     15 C          62.4837   85.0770   12.0880 C.ar    1  UNL1        0.0829
     16 N          63.5378   85.4033   13.1040 N.ar    1  UNL1       -0.2731
     17 C          63.0688   81.1791   11.6255 C.ar    1  UNL1        0.0108
     18 C          63.2861   80.8636   10.1753 C.ar    1  UNL1        0.0017
     19 C          63.1297   79.4555    9.6824 C.ar    1  UNL1        0.0114
     20 C          62.7561   78.3629   10.6398 C.ar    1  UNL1        0.0585
     21 CL         62.5998   76.9549   10.1470 Cl      1  UNL1       -0.0822
     22 C          62.5388   78.6784   12.0901 C.ar    1  UNL1        0.0228
     23 C          62.6952   80.0865   12.5830 C.ar    1  UNL1        0.0585
     24 CL         62.4779   80.4019   14.0332 Cl      1  UNL1       -0.0822
     25 C          64.4242   91.8134   16.0634 C.3     1  UNL1        0.1447
     26 C          65.4651   92.8932   16.0814 C.3     1  UNL1        0.0988
     27 N          66.8179   92.6410   15.4844 N.3     1  UNL1       -0.2710
     28 C          67.1037   92.3445   14.0421 C.3     1  UNL1        0.0722
     29 C          68.5848   92.1613   13.8913 C.3     1  UNL1        0.0188
     30 C          69.2143   92.3445   15.2403 C.3     1  UNL1        0.0188
     31 C          68.1223   92.6410   16.2250 C.3     1  UNL1        0.0722
@<TRIPOS>BOND
     1    10    11    2
     2    11    12   ar
     3    12    13   ar
     4    13    17    1
     5    17    18   ar
     6    18    19   ar
     7    19    20   ar
     8    20    21    1
     9    20    22   ar
    10    22    23   ar
    11    23    24    1
    12    13    14   ar
    13    14    15   ar
    14    15    16   ar
    15    16     1    1
    16     1     2   ar
    17     2     3   ar
    18     3     4   ar
    19     4     5   ar
    20     5     6   ar
    21     6     7   ar
    22     7     8   ar
    23     8    25    1
    24    25    26    1
    25    26    27    1
    26    27    28    1
    27    28    29    1
    28    29    30    1
    29    30    31    1
    30     5     9   ar
    31    16    11   ar
    32     9     1   ar
    33    23    17   ar
    34     8     4   ar
    35    31    27    1
@<TRIPOS>MOLECULE
*****
 31 35 0 0 0
SMALL
GASTEIGER

@<TRIPOS>ATOM
      1 C          59.0010   94.2383   -1.1012 C.ar    1  UNL1        0.0670
      2 C          58.7333   93.9651    0.3491 C.ar    1  UNL1        0.0191
      3 C          59.8630   93.5931    1.2631 C.ar    1  UNL1        0.0203
      4 C          61.2603   93.4943    0.7267 C.ar    1  UNL1        0.0795
      5 C          61.5280   93.7676   -0.7237 C.ar    1  UNL1        0.0396
      6 C          62.9982   93.5936   -0.9646 C.ar    1  UNL1        0.1216
      7 N          63.6393   93.2127    0.3370 N.ar    1  UNL1       -0.1677
      8 N          62.5652   93.1514    1.3823 N.ar    1  UNL1       -0.2494
      9 C          60.3983   94.1396   -1.6377 C.ar    1  UNL1        0.0207
     10 O          56.6238   92.4270   -1.3619 O.2     1  UNL1       -0.2666
     11 C          56.6826   93.7047   -2.1456 C.ar    1  UNL1        0.2648
     12 C          55.5529   94.0766   -3.0596 C.ar    1  UNL1        0.0612
     13 C          55.6118   95.3543   -3.8433 C.ar    1  UNL1        0.0071
     14 C          56.8004   96.2600   -3.7130 C.ar    1  UNL1        0.0193
     15 C          57.9301   95.8880   -2.7989 C.ar    1  UNL1        0.0829
     16 N          57.8712   94.6104   -2.0153 N.ar    1  UNL1       -0.2731
     17 C          54.4821   95.7263   -4.7573 C.ar    1  UNL1        0.0108
     18 C          53.2467   96.3687   -4.1997 C.ar    1  UNL1        0.0017
     19 C          52.1170   96.7407   -5.1137 C.ar    1  UNL1        0.0114
     20 C          52.2227   96.4702   -6.5853 C.ar    1  UNL1        0.0585
     21 CL         51.0930   96.8422   -7.4993 Cl      1  UNL1       -0.0822
     22 C          53.4582   95.8277   -7.1429 C.ar    1  UNL1        0.0228
     23 C          54.5878   95.4558   -6.2289 C.ar    1  UNL1        0.0585
     24 CL         55.8232   94.8133   -6.7866 Cl      1  UNL1       -0.0822
     25 C          62.7615   92.8075    2.8291 C.3     1  UNL1        0.1447
     26 C          62.2084   91.5254    3.3769 C.3     1  UNL1        0.0988
     27 N          60.8901   91.5224    4.0924 N.3     1  UNL1       -0.2710
     28 C          60.4317   90.5023    5.0920 C.3     1  UNL1        0.0722
     29 C          59.0570   90.8884    5.5512 C.3     1  UNL1        0.0188
     30 C          58.6656   92.1472    4.8354 C.3     1  UNL1        0.0188
     31 C          59.7986   92.5390    3.9338 C.3     1  UNL1        0.0722
@<TRIPOS>BOND
     1    10    11    2
     2    11    12   ar
     3    12    13   ar
     4    13    17    1
     5    17    18   ar
     6    18    19   ar
     7    19    20   ar
     8    20    21    1
     9    20    22   ar
    10    22    23   ar
    11    23    24    1
    12    13    14   ar
    13    14    15   ar
    14    15    16   ar
    15    16     1    1
    16     1     2   ar
    17     2     3   ar
    18     3     4   ar
    19     4     5   ar
    20     5     6   ar
    21     6     7   ar
    22     7     8   ar
    23     8    25    1
    24    25    26    1
    25    26    27    1
    26    27    28    1
    27    28    29    1
    28    29    30    1
    29    30    31    1
    30     5     9   ar
    31    16    11   ar
    32     9     1   ar
    33    23    17   ar
    34     8     4   ar
    35    31    27    1
@<TRIPOS>MOLECULE
*****
 31 35 0 0 0
SMALL
GASTEIGER

@<TRIPOS>ATOM
      1 C          59.0607   93.9786   -0.5153 C.ar    1  UNL1        0.0670
      2 C          58.8102   93.3520    0.8243 C.ar    1  UNL1        0.0191
      3 C          59.9657   92.9421    1.6884 C.ar    1  UNL1        0.0203
      4 C          61.3718   93.1588    1.2128 C.ar    1  UNL1        0.0795
      5 C          61.6223   93.7854   -0.1268 C.ar    1  UNL1        0.0396
      6 C          63.1062   93.8729   -0.3273 C.ar    1  UNL1        0.1216
      7 N          63.7729   93.3003    0.8883 N.ar    1  UNL1       -0.1677
      8 N          62.7009   92.8590    1.8402 N.ar    1  UNL1       -0.2494
      9 C          60.4667   94.1953   -0.9908 C.ar    1  UNL1        0.0207
     10 O          58.2079   96.8531   -0.6150 O.2     1  UNL1       -0.2666
     11 C          57.4788   95.8258   -1.4293 C.ar    1  UNL1        0.2648
     12 C          56.3233   96.2358   -2.2934 C.ar    1  UNL1        0.0612
     13 C          55.5941   95.2085   -3.1077 C.ar    1  UNL1        0.0071
     14 C          56.0205   93.7712   -3.0579 C.ar    1  UNL1        0.0193
     15 C          57.1761   93.3613   -2.1937 C.ar    1  UNL1        0.0829
     16 N          57.9052   94.3886   -1.3795 N.ar    1  UNL1       -0.2731
     17 C          54.4386   95.6185   -3.9718 C.ar    1  UNL1        0.0108
     18 C          54.5916   95.6491   -5.4637 C.ar    1  UNL1        0.0017
     19 C          53.4360   96.0591   -6.3278 C.ar    1  UNL1        0.0114
     20 C          52.1276   96.4385   -5.7001 C.ar    1  UNL1        0.0585
     21 CL         50.9721   96.8484   -6.5642 Cl      1  UNL1       -0.0822
     22 C          51.9747   96.4079   -4.2082 C.ar    1  UNL1        0.0228
     23 C          53.1302   95.9979   -3.3441 C.ar    1  UNL1        0.0585
     24 CL         52.9772   95.9673   -1.8522 Cl      1  UNL1       -0.0822
     25 C          62.9197   92.2286    3.1836 C.3     1  UNL1        0.1447
     26 C          62.1444   91.0049    3.5730 C.3     1  UNL1        0.0988
     27 N          60.8605   91.1419    4.3364 N.3     1  UNL1       -0.2710
     28 C          59.8895   92.2804    4.2315 C.3     1  UNL1        0.0722
     29 C          58.7511   92.0064    5.1689 C.3     1  UNL1        0.0188
     30 C          59.0184   90.6986    5.8532 C.3     1  UNL1        0.0188
     31 C          60.3221   90.1643    5.3386 C.3     1  UNL1        0.0722
@<TRIPOS>BOND
     1    10    11    2
     2    11    12   ar
     3    12    13   ar
     4    13    17    1
     5    17    18   ar
     6    18    19   ar
     7    19    20   ar
     8    20    21    1
     9    20    22   ar
    10    22    23   ar
    11    23    24    1
    12    13    14   ar
    13    14    15   ar
    14    15    16   ar
    15    16     1    1
    16     1     2   ar
    17     2     3   ar
    18     3     4   ar
    19     4     5   ar
    20     5     6   ar
    21     6     7   ar
    22     7     8   ar
    23     8    25    1
    24    25    26    1
    25    26    27    1
    26    27    28    1
    27    28    29    1
    28    29    30    1
    29    30    31    1
    30     5     9   ar
    31    16    11   ar
    32     9     1   ar
    33    23    17   ar
    34     8     4   ar
    35    31    27    1
