@<TRIPOS>MOLECULE
*****
 28 31 0 0 0
SMALL
GASTEIGER

@<TRIPOS>ATOM
      1 C          66.2373   94.2942   12.3940 C.ar    1  UNL1        0.0645
      2 C          66.7799   93.9086   13.7381 C.ar    1  UNL1        0.0158
      3 C          66.4028   92.5919   14.3496 C.ar    1  UNL1        0.0014
      4 C          65.4829   91.6607   13.6170 C.ar    1  UNL1        0.0032
      5 C          65.2359   90.4057   14.4004 C.ar    1  UNL1        0.0016
      6 C          64.3850   89.2262   14.0331 C.ar    1  UNL1        0.0192
      7 C          63.5712   89.0105   12.7917 C.ar    1  UNL1        0.0844
      8 N          62.8650   87.6874   12.8224 N.ar    1  UNL1       -0.2437
      9 C          61.9948   87.2749   11.6724 C.ar    1  UNL1        0.0988
     10 C          61.8307   88.1854   10.4917 C.ar    1  UNL1        0.0193
     11 C          62.5369   89.5084   10.4610 C.ar    1  UNL1        0.0062
     12 C          63.4071   89.9209   11.6110 C.ar    1  UNL1        0.0566
     13 C          64.0165   91.2720   11.3801 C.ar    1  UNL1        0.1970
     14 O          63.6540   91.9367   10.0852 O.2     1  UNL1       -0.2865
     15 C          64.9403   92.0463   12.2728 C.ar    1  UNL1        0.0403
     16 C          65.3174   93.3630   11.6613 C.ar    1  UNL1        0.0190
     17 C          60.9605   87.7729    9.3417 C.ar    1  UNL1        0.0015
     18 C          60.1180   88.7930    8.6350 C.ar    1  UNL1        0.0000
     19 C          59.2478   88.3805    7.4850 C.ar    1  UNL1        0.0000
     20 C          59.2201   86.9478    7.0416 C.ar    1  UNL1        0.0000
     21 C          60.0627   85.9276    7.7483 C.ar    1  UNL1        0.0000
     22 C          60.9329   86.3401    8.8983 C.ar    1  UNL1        0.0000
     23 N          66.6144   95.6109   11.7824 N.pl3   1  UNL1       -0.2187
     24 H          66.8979   96.3577   12.3579 H       1  UNL1        0.1734
     25 C          66.5049   95.9687    8.8058 C.3     1  UNL1        0.1996
     26 S          66.5596   95.7898   10.2942 S.O2    1  UNL1        0.0558
     27 O          67.7706   94.9174   10.1447 O.2     1  UNL1       -0.1544
     28 O          65.3487   96.6623   10.4436 O.2     1  UNL1       -0.1544
@<TRIPOS>BOND
     1    25    26    1
     2    26    27    2
     3    26    28    2
     4    26    23    1
     5    23     1    1
     6     1     2   ar
     7     2     3   ar
     8     3     4   ar
     9     4     5   ar
    10     5     6   ar
    11     6     7   ar
    12     7     8   ar
    13     8     9   ar
    14     9    10   ar
    15    10    17    1
    16    17    18   ar
    17    18    19   ar
    18    19    20   ar
    19    20    21   ar
    20    21    22   ar
    21    10    11   ar
    22    11    12   ar
    23    12    13   ar
    24    13    14    2
    25    13    15   ar
    26    15    16   ar
    27    16     1   ar
    28    15     4   ar
    29    12     7   ar
    30    22    17   ar
    31    23    24    1
@<TRIPOS>MOLECULE
*****
 28 31 0 0 0
SMALL
GASTEIGER

@<TRIPOS>ATOM
      1 C          59.1368   88.7125    7.4120 C.ar    1  UNL1        0.0645
      2 C          59.0622   87.2303    7.1945 C.ar    1  UNL1        0.0158
      3 C          59.8200   86.3010    8.0957 C.ar    1  UNL1        0.0014
      4 C          60.6524   86.8539    9.2143 C.ar    1  UNL1        0.0032
      5 C          61.3236   85.7598    9.9904 C.ar    1  UNL1        0.0016
      6 C          62.2353   85.8778   11.1757 C.ar    1  UNL1        0.0192
      7 C          62.7008   87.1190   11.8777 C.ar    1  UNL1        0.0844
      8 N          63.6108   86.7915   13.0243 N.ar    1  UNL1       -0.2437
      9 C          64.1895   87.8938   13.8610 C.ar    1  UNL1        0.0988
     10 C          63.8584   89.3236   13.5509 C.ar    1  UNL1        0.0193
     11 C          62.9484   89.6511   12.4043 C.ar    1  UNL1        0.0062
     12 C          62.3697   88.5488   11.5677 C.ar    1  UNL1        0.0566
     13 C          61.4912   89.0904   10.4791 C.ar    1  UNL1        0.1970
     14 O          61.3596   90.5839   10.4318 O.2     1  UNL1       -0.2865
     15 C          60.7269   88.3361    9.4318 C.ar    1  UNL1        0.0403
     16 C          59.9691   89.2655    8.5306 C.ar    1  UNL1        0.0190
     17 C          64.4371   90.4259   14.3876 C.ar    1  UNL1        0.0015
     18 C          63.8401   90.7439   15.7263 C.ar    1  UNL1        0.0000
     19 C          64.4188   91.8462   16.5630 C.ar    1  UNL1        0.0000
     20 C          65.5947   92.6305   16.0608 C.ar    1  UNL1        0.0000
     21 C          66.1918   92.3126   14.7220 C.ar    1  UNL1        0.0000
     22 C          65.6130   91.2103   13.8854 C.ar    1  UNL1        0.0000
     23 N          58.3789   89.6419    6.5108 N.pl3   1  UNL1       -0.2187
     24 H          57.3951   89.6139    6.4901 H       1  UNL1        0.1734
     25 C          59.8615   91.5856    4.7718 C.3     1  UNL1        0.1996
     26 S          59.1202   90.6137    5.6413 S.O2    1  UNL1        0.0558
     27 O          60.3582   89.7752    5.7595 O.2     1  UNL1       -0.1544
     28 O          57.8821   91.4522    5.5231 O.2     1  UNL1       -0.1544
@<TRIPOS>BOND
     1    25    26    1
     2    26    27    2
     3    26    28    2
     4    26    23    1
     5    23     1    1
     6     1     2   ar
     7     2     3   ar
     8     3     4   ar
     9     4     5   ar
    10     5     6   ar
    11     6     7   ar
    12     7     8   ar
    13     8     9   ar
    14     9    10   ar
    15    10    17    1
    16    17    18   ar
    17    18    19   ar
    18    19    20   ar
    19    20    21   ar
    20    21    22   ar
    21    10    11   ar
    22    11    12   ar
    23    12    13   ar
    24    13    14    2
    25    13    15   ar
    26    15    16   ar
    27    16     1   ar
    28    15     4   ar
    29    12     7   ar
    30    22    17   ar
    31    23    24    1
@<TRIPOS>MOLECULE
*****
 28 31 0 0 0
SMALL
GASTEIGER

@<TRIPOS>ATOM
      1 C          64.1646   91.0982   14.4283 C.ar    1  UNL1        0.0645
      2 C          63.9313   91.3712   15.8846 C.ar    1  UNL1        0.0158
      3 C          63.5620   90.2486   16.8084 C.ar    1  UNL1        0.0014
      4 C          63.4259   88.8530   16.2758 C.ar    1  UNL1        0.0032
      5 C          63.0523   87.8865   17.3604 C.ar    1  UNL1        0.0016
      6 C          62.8197   86.4083   17.2565 C.ar    1  UNL1        0.0192
      7 C          62.9032   85.5315   16.0423 C.ar    1  UNL1        0.0844
      8 N          62.5948   84.1020   16.3764 N.ar    1  UNL1       -0.2437
      9 C          62.6231   83.0574   15.3003 C.ar    1  UNL1        0.0988
     10 C          62.9599   83.4423   13.8901 C.ar    1  UNL1        0.0193
     11 C          63.2684   84.8716   13.5561 C.ar    1  UNL1        0.0062
     12 C          63.2400   85.9162   14.6322 C.ar    1  UNL1        0.0566
     13 C          63.5764   87.2730   14.0880 C.ar    1  UNL1        0.1970
     14 O          63.8688   87.3303   12.6179 O.2     1  UNL1       -0.2865
     15 C          63.6591   88.5799   14.8195 C.ar    1  UNL1        0.0403
     16 C          64.0285   89.7025   13.8957 C.ar    1  UNL1        0.0190
     17 C          62.9883   82.3977   12.8140 C.ar    1  UNL1        0.0015
     18 C          62.5726   80.9901   13.1239 C.ar    1  UNL1        0.0000
     19 C          62.6010   79.9455   12.0478 C.ar    1  UNL1        0.0000
     20 C          63.0450   80.3084   10.6619 C.ar    1  UNL1        0.0000
     21 C          63.4607   81.7160   10.3519 C.ar    1  UNL1        0.0000
     22 C          63.4323   82.7606   11.4280 C.ar    1  UNL1        0.0000
     23 N          64.5340   92.2208   13.5045 N.pl3   1  UNL1       -0.2187
     24 H          63.8893   92.9429   13.3251 H       1  UNL1        0.1734
     25 C          67.2370   92.2654   12.2038 C.3     1  UNL1        0.1996
     26 S          65.8854   92.2431   12.8542 S.O2    1  UNL1        0.0558
     27 O          66.5250   92.4740   14.1912 O.2     1  UNL1       -0.1544
     28 O          65.2459   92.0122   11.5172 O.2     1  UNL1       -0.1544
@<TRIPOS>BOND
     1    25    26    1
     2    26    27    2
     3    26    28    2
     4    26    23    1
     5    23     1    1
     6     1     2   ar
     7     2     3   ar
     8     3     4   ar
     9     4     5   ar
    10     5     6   ar
    11     6     7   ar
    12     7     8   ar
    13     8     9   ar
    14     9    10   ar
    15    10    17    1
    16    17    18   ar
    17    18    19   ar
    18    19    20   ar
    19    20    21   ar
    20    21    22   ar
    21    10    11   ar
    22    11    12   ar
    23    12    13   ar
    24    13    14    2
    25    13    15   ar
    26    15    16   ar
    27    16     1   ar
    28    15     4   ar
    29    12     7   ar
    30    22    17   ar
    31    23    24    1
