@<TRIPOS>MOLECULE
*****
 41 44 0 0 0
SMALL
GASTEIGER

@<TRIPOS>ATOM
      1 C          62.4531   87.6474   11.7581 C.ar    1  UNL1        0.2144
      2 C          61.8018   86.7613   10.7380 C.ar    1  UNL1        0.1822
      3 O          61.9714   85.2732   10.8195 O.2     1  UNL1       -0.4500
      4 C          62.7923   84.6711   11.9211 C.ar    1  UNL1        0.1545
      5 C          62.9619   83.1829   12.0026 C.ar    1  UNL1        0.0744
      6 C          63.7829   82.5809   13.1042 C.ar    1  UNL1        0.1397
      7 O          63.9525   81.0927   13.1857 O.3     1  UNL1       -0.5053
      8 C          64.4342   83.4670   14.1243 C.ar    1  UNL1        0.0735
      9 C          64.2645   84.9551   14.0429 C.ar    1  UNL1        0.1428
     10 O          64.9158   85.8411   15.0630 O.3     1  UNL1       -0.5052
     11 C          63.4436   85.5571   12.9413 C.ar    1  UNL1        0.1104
     12 C          63.2740   87.0453   12.8597 C.ar    1  UNL1        0.2382
     13 O          63.9253   87.9314   13.8799 O.2     1  UNL1       -0.2830
     14 H          63.5457   80.5392   12.5484 H       1  UNL1        0.2922
     15 H          65.4286   85.4650   15.7512 H       1  UNL1        0.2922
     16 C          60.9808   87.3634    9.6363 C.ar    1  UNL1        0.0379
     17 C          60.9475   88.8518    9.4534 C.ar    1  UNL1        0.0062
     18 C          60.1266   89.4539    8.3518 C.ar    1  UNL1        0.0367
     19 C          59.3390   88.5675    7.4331 C.ar    1  UNL1        0.1337
     20 O          58.5180   89.1697    6.3315 O.3     1  UNL1       -0.5055
     21 C          59.3723   87.0791    7.6160 C.ar    1  UNL1        0.0367
     22 C          60.1932   86.4771    8.7176 C.ar    1  UNL1        0.0062
     23 H          58.4972   90.0994    6.2172 H       1  UNL1        0.2922
     24 O          62.2834   89.1356   11.6766 O.3     1  UNL1       -0.4441
     25 C          64.7201   91.8268   14.3355 C.3     1  UNL1        0.2380
     26 C          64.8106   91.9639   12.8446 C.3     1  UNL1        0.2438
     27 C          63.9983   91.0668   11.9583 C.3     1  UNL1        0.2252
     28 O          64.0888   91.2038   10.4673 O.3     1  UNL1       -0.3757
     29 C          63.0956   90.0327   12.5629 C.3     1  UNL1        0.3195
     30 O          63.0051   89.8956   14.0540 O.3     1  UNL1       -0.3173
     31 C          63.8174   90.7927   14.9402 C.3     1  UNL1        0.1626
     32 C          63.7269   90.6556   16.4312 C.3     1  UNL1        0.0362
     33 H          63.5047   90.5536   10.0468 H       1  UNL1        0.2107
     34 O          65.5324   92.7239   15.2218 O.3     1  UNL1       -0.4458
     35 C          67.9248   93.5740   15.7726 C.3     1  UNL1        0.1212
     36 C          66.9923   92.4500   15.4304 C.2     1  UNL1        0.3176
     37 O          67.5196   91.0522   15.2968 O.2     1  UNL1       -0.2501
     38 O          65.7133   92.9980   12.2399 O.3     1  UNL1       -0.4456
     39 C          66.9829   92.5797   11.5593 C.2     1  UNL1        0.3176
     40 C          67.1559   92.8100   10.0873 C.3     1  UNL1        0.1212
     41 O          68.0796   91.9309   12.3509 O.2     1  UNL1       -0.2501
@<TRIPOS>BOND
     1    35    36    1
     2    36    37    2
     3    36    34    1
     4    25    34    1
     5    25    26    1
     6    26    38    1
     7    38    39    1
     8    39    40    1
     9    39    41    2
    10    26    27    1
    11    27    28    1
    12    27    29    1
    13    29    24    1
    14    24     1    1
    15     1     2   ar
    16     2    16    1
    17    16    17   ar
    18    17    18   ar
    19    18    19   ar
    20    19    20    1
    21    19    21   ar
    22    21    22   ar
    23     2     3   ar
    24     3     4   ar
    25     4     5   ar
    26     5     6   ar
    27     6     7    1
    28     6     8   ar
    29     8     9   ar
    30     9    10    1
    31     9    11   ar
    32    11    12   ar
    33    12    13    2
    34    29    30    1
    35    30    31    1
    36    31    32    1
    37    31    25    1
    38    12     1   ar
    39    22    16   ar
    40    11     4   ar
    41    28    33    1
    42    20    23    1
    43     7    14    1
    44    10    15    1
@<TRIPOS>MOLECULE
*****
 41 44 0 0 0
SMALL
GASTEIGER

@<TRIPOS>ATOM
      1 C          62.9570   89.7646   12.1934 C.ar    1  UNL1        0.2144
      2 C          62.8783   90.0132   10.7163 C.ar    1  UNL1        0.1822
      3 O          63.6869   91.1144   10.0969 O.2     1  UNL1       -0.4500
      4 C          64.5742   91.9669   10.9548 C.ar    1  UNL1        0.1545
      5 C          65.3828   93.0681   10.3354 C.ar    1  UNL1        0.0744
      6 C          66.2701   93.9206   11.1933 C.ar    1  UNL1        0.1397
      7 O          67.0788   95.0218   10.5739 O.3     1  UNL1       -0.5053
      8 C          66.3489   93.6719   12.6704 C.ar    1  UNL1        0.0735
      9 C          65.5403   92.5708   13.2897 C.ar    1  UNL1        0.1428
     10 O          65.6190   92.3221   14.7669 O.3     1  UNL1       -0.5052
     11 C          64.6530   91.7183   12.4319 C.ar    1  UNL1        0.1104
     12 C          63.8443   90.6171   13.0512 C.ar    1  UNL1        0.2382
     13 O          63.9230   90.3684   14.5284 O.2     1  UNL1       -0.2830
     14 H          67.0296   95.1771    9.6512 H       1  UNL1        0.2922
     15 H          66.1733   92.8546   15.3027 H       1  UNL1        0.2922
     16 C          61.9909   89.1607    9.8584 C.ar    1  UNL1        0.0379
     17 C          60.6199   89.6424    9.4864 C.ar    1  UNL1        0.0062
     18 C          59.7326   88.7898    8.6286 C.ar    1  UNL1        0.0367
     19 C          60.2163   87.4556    8.1429 C.ar    1  UNL1        0.1337
     20 O          59.3289   86.6031    7.2850 O.3     1  UNL1       -0.5055
     21 C          61.5872   86.9739    8.5149 C.ar    1  UNL1        0.0367
     22 C          62.4745   87.8265    9.3727 C.ar    1  UNL1        0.0062
     23 H          58.4725   86.9040    7.0526 H       1  UNL1        0.2922
     24 O          62.1483   88.6634   12.8127 O.3     1  UNL1       -0.4441
     25 C          63.9843   84.6031   13.4398 C.3     1  UNL1        0.2380
     26 C          62.8085   84.7608   12.5220 C.3     1  UNL1        0.2438
     27 C          62.1965   86.1143   12.3129 C.3     1  UNL1        0.2252
     28 O          61.0207   86.2721   11.3951 O.3     1  UNL1       -0.3757
     29 C          62.7603   87.3099   13.0218 C.3     1  UNL1        0.3195
     30 O          63.9362   87.1522   13.9397 O.3     1  UNL1       -0.3173
     31 C          64.5482   85.7987   14.1487 C.3     1  UNL1        0.1626
     32 C          65.7240   85.6409   15.0665 C.3     1  UNL1        0.0362
     33 H          60.7503   87.2034   11.3732 H       1  UNL1        0.2107
     34 O          64.5963   83.2496   13.6488 O.3     1  UNL1       -0.4458
     35 C          63.9486   80.7385   13.8054 C.3     1  UNL1        0.1212
     36 C          63.7922   82.1524   14.2809 C.2     1  UNL1        0.3176
     37 O          62.8317   82.4692   15.3886 O.2     1  UNL1       -0.2501
     38 O          62.2446   83.5652   11.8131 O.3     1  UNL1       -0.4456
     39 C          63.0479   82.8755   10.7505 C.2     1  UNL1        0.3176
     40 C          63.8049   83.6841    9.7391 C.3     1  UNL1        0.1212
     41 O          63.0940   81.3770   10.6993 O.2     1  UNL1       -0.2501
@<TRIPOS>BOND
     1    35    36    1
     2    36    37    2
     3    36    34    1
     4    25    34    1
     5    25    26    1
     6    26    38    1
     7    38    39    1
     8    39    40    1
     9    39    41    2
    10    26    27    1
    11    27    28    1
    12    27    29    1
    13    29    24    1
    14    24     1    1
    15     1     2   ar
    16     2    16    1
    17    16    17   ar
    18    17    18   ar
    19    18    19   ar
    20    19    20    1
    21    19    21   ar
    22    21    22   ar
    23     2     3   ar
    24     3     4   ar
    25     4     5   ar
    26     5     6   ar
    27     6     7    1
    28     6     8   ar
    29     8     9   ar
    30     9    10    1
    31     9    11   ar
    32    11    12   ar
    33    12    13    2
    34    29    30    1
    35    30    31    1
    36    31    32    1
    37    31    25    1
    38    12     1   ar
    39    22    16   ar
    40    11     4   ar
    41    28    33    1
    42    20    23    1
    43     7    14    1
    44    10    15    1
@<TRIPOS>MOLECULE
*****
 41 44 0 0 0
SMALL
GASTEIGER

@<TRIPOS>ATOM
      1 C          62.4160   87.9416   11.9324 C.ar    1  UNL1        0.2144
      2 C          61.8811   87.0702   10.8349 C.ar    1  UNL1        0.1822
      3 O          62.1712   85.5985   10.8370 O.2     1  UNL1       -0.4500
      4 C          62.9961   84.9983   11.9368 C.ar    1  UNL1        0.1545
      5 C          63.2861   83.5266   11.9389 C.ar    1  UNL1        0.0744
      6 C          64.1109   82.9264   13.0386 C.ar    1  UNL1        0.1397
      7 O          64.4010   81.4546   13.0408 O.3     1  UNL1       -0.5053
      8 C          64.6457   83.7978   14.1361 C.ar    1  UNL1        0.0735
      9 C          64.3557   85.2695   14.1340 C.ar    1  UNL1        0.1428
     10 O          64.8905   86.1409   15.2315 O.3     1  UNL1       -0.5052
     11 C          63.5309   85.8697   13.0343 C.ar    1  UNL1        0.1104
     12 C          63.2408   87.3414   13.0321 C.ar    1  UNL1        0.2382
     13 O          63.7756   88.2129   14.1296 O.2     1  UNL1       -0.2830
     14 H          64.0669   80.9103   12.3552 H       1  UNL1        0.2922
     15 H          65.4058   85.7660   15.9184 H       1  UNL1        0.2922
     16 C          61.0562   87.6705    9.7352 C.ar    1  UNL1        0.0379
     17 C          60.2124   86.7883    8.8636 C.ar    1  UNL1        0.0062
     18 C          59.3875   87.3886    7.7640 C.ar    1  UNL1        0.0367
     19 C          59.4066   88.8711    7.5359 C.ar    1  UNL1        0.1337
     20 O          58.5817   89.4714    6.4362 O.3     1  UNL1       -0.5055
     21 C          60.2505   89.7532    8.4074 C.ar    1  UNL1        0.0367
     22 C          61.0753   89.1529    9.5071 C.ar    1  UNL1        0.0062
     23 H          58.0546   88.9203    5.8917 H       1  UNL1        0.2922
     24 O          62.1259   89.4134   11.9302 O.3     1  UNL1       -0.4441
     25 C          65.5045   92.3729   12.2056 C.3     1  UNL1        0.2380
     26 C          64.8060   91.9141   13.4511 C.3     1  UNL1        0.2438
     27 C          63.6798   90.9276   13.3594 C.3     1  UNL1        0.2252
     28 O          62.9812   90.4688   14.6049 O.3     1  UNL1       -0.3757
     29 C          63.2521   90.3999   12.0220 C.3     1  UNL1        0.3195
     30 O          63.9507   90.8587   10.7763 O.3     1  UNL1       -0.3173
     31 C          65.0769   91.8452   10.8681 C.3     1  UNL1        0.1626
     32 C          65.7754   92.3040    9.6226 C.3     1  UNL1        0.0362
     33 H          62.2837   89.8369   14.3703 H       1  UNL1        0.2107
     34 O          66.6308   93.3594   12.2974 O.3     1  UNL1       -0.4458
     35 C          65.7622   95.6302   11.3814 C.3     1  UNL1        0.1212
     36 C          66.7260   94.4832   11.3084 C.2     1  UNL1        0.3176
     37 O          67.7849   94.4598   10.2463 O.2     1  UNL1       -0.2501
     38 O          65.2337   92.4418   14.7885 O.3     1  UNL1       -0.4456
     39 C          66.6255   92.1857   15.2857 C.2     1  UNL1        0.3176
     40 C          67.3039   93.1917   16.1676 C.3     1  UNL1        0.1212
     41 O          67.3389   90.9235   14.9010 O.2     1  UNL1       -0.2501
@<TRIPOS>BOND
     1    35    36    1
     2    36    37    2
     3    36    34    1
     4    25    34    1
     5    25    26    1
     6    26    38    1
     7    38    39    1
     8    39    40    1
     9    39    41    2
    10    26    27    1
    11    27    28    1
    12    27    29    1
    13    29    24    1
    14    24     1    1
    15     1     2   ar
    16     2    16    1
    17    16    17   ar
    18    17    18   ar
    19    18    19   ar
    20    19    20    1
    21    19    21   ar
    22    21    22   ar
    23     2     3   ar
    24     3     4   ar
    25     4     5   ar
    26     5     6   ar
    27     6     7    1
    28     6     8   ar
    29     8     9   ar
    30     9    10    1
    31     9    11   ar
    32    11    12   ar
    33    12    13    2
    34    29    30    1
    35    30    31    1
    36    31    32    1
    37    31    25    1
    38    12     1   ar
    39    22    16   ar
    40    11     4   ar
    41    28    33    1
    42    20    23    1
    43     7    14    1
    44    10    15    1
@<TRIPOS>MOLECULE
*****
 41 44 0 0 0
SMALL
GASTEIGER

@<TRIPOS>ATOM
      1 C          63.5329   89.9029   13.6991 C.ar    1  UNL1        0.2144
      2 C          64.3866   89.1108   14.6445 C.ar    1  UNL1        0.1822
      3 O          65.7559   89.6022   15.0098 O.2     1  UNL1       -0.4500
      4 C          66.2715   90.8859   14.4296 C.ar    1  UNL1        0.1545
      5 C          67.6408   91.3773   14.7948 C.ar    1  UNL1        0.0744
      6 C          68.1564   92.6609   14.2147 C.ar    1  UNL1        0.1397
      7 O          69.5258   93.1524   14.5799 O.3     1  UNL1       -0.5053
      8 C          67.3027   93.4530   13.2693 C.ar    1  UNL1        0.0735
      9 C          65.9334   92.9615   12.9041 C.ar    1  UNL1        0.1428
     10 O          65.0797   93.7536   11.9587 O.3     1  UNL1       -0.5052
     11 C          65.4178   91.6780   13.4842 C.ar    1  UNL1        0.1104
     12 C          64.0484   91.1864   13.1190 C.ar    1  UNL1        0.2382
     13 O          63.1947   91.9785   12.1736 O.2     1  UNL1       -0.2830
     14 H          70.0591   92.6576   15.1704 H       1  UNL1        0.2922
     15 H          65.4018   94.5554   11.5963 H       1  UNL1        0.2922
     16 C          63.8709   87.8272   15.2247 C.ar    1  UNL1        0.0379
     17 C          63.1115   87.8404   16.5181 C.ar    1  UNL1        0.0062
     18 C          62.5959   86.5568   17.0982 C.ar    1  UNL1        0.0367
     19 C          62.8397   85.2600   16.3849 C.ar    1  UNL1        0.1337
     20 O          62.3241   83.9764   16.9651 O.3     1  UNL1       -0.5055
     21 C          63.5991   85.2468   15.0914 C.ar    1  UNL1        0.0367
     22 C          64.1147   86.5304   14.5113 C.ar    1  UNL1        0.0062
     23 H          61.8497   83.9847   17.7730 H       1  UNL1        0.2922
     24 O          62.1635   89.4114   13.3339 O.3     1  UNL1       -0.4441
     25 C          61.6159   86.7182    9.7707 C.3     1  UNL1        0.2380
     26 C          61.3302   88.1859    9.6524 C.3     1  UNL1        0.2438
     27 C          61.5127   89.0836   10.8401 C.3     1  UNL1        0.2252
     28 O          61.2270   90.5514   10.7219 O.3     1  UNL1       -0.3757
     29 C          61.9810   88.5136   12.1462 C.3     1  UNL1        0.3195
     30 O          62.2667   87.0458   12.2645 O.3     1  UNL1       -0.3173
     31 C          62.0842   86.1481   11.0768 C.3     1  UNL1        0.1626
     32 C          62.3699   84.6803   11.1950 C.3     1  UNL1        0.0362
     33 H          61.3945   90.9831   11.5742 H       1  UNL1        0.2107
     34 O          61.4334   85.8204    8.5829 O.3     1  UNL1       -0.4458
     35 C          62.4220   84.6677    6.4749 C.3     1  UNL1        0.1212
     36 C          62.6204   85.4123    7.7618 C.2     1  UNL1        0.3176
     37 O          64.0060   85.7489    8.2275 O.2     1  UNL1       -0.2501
     38 O          60.8619   88.7559    8.3463 O.3     1  UNL1       -0.4456
     39 C          59.4914   88.4271    7.8328 C.2     1  UNL1        0.3176
     40 C          58.8982   89.2284    6.7121 C.3     1  UNL1        0.1212
     41 O          58.7142   87.2969    8.4400 O.2     1  UNL1       -0.2501
@<TRIPOS>BOND
     1    35    36    1
     2    36    37    2
     3    36    34    1
     4    25    34    1
     5    25    26    1
     6    26    38    1
     7    38    39    1
     8    39    40    1
     9    39    41    2
    10    26    27    1
    11    27    28    1
    12    27    29    1
    13    29    24    1
    14    24     1    1
    15     1     2   ar
    16     2    16    1
    17    16    17   ar
    18    17    18   ar
    19    18    19   ar
    20    19    20    1
    21    19    21   ar
    22    21    22   ar
    23     2     3   ar
    24     3     4   ar
    25     4     5   ar
    26     5     6   ar
    27     6     7    1
    28     6     8   ar
    29     8     9   ar
    30     9    10    1
    31     9    11   ar
    32    11    12   ar
    33    12    13    2
    34    29    30    1
    35    30    31    1
    36    31    32    1
    37    31    25    1
    38    12     1   ar
    39    22    16   ar
    40    11     4   ar
    41    28    33    1
    42    20    23    1
    43     7    14    1
    44    10    15    1
