@<TRIPOS>MOLECULE
*****
 43 48 0 0 0
SMALL
GASTEIGER

@<TRIPOS>ATOM
      1 N          60.2689   93.6832    1.4208 N.3     1  UNL1       -0.2688
      2 C          59.7438   92.6544    0.4637 C.3     1  UNL1        0.0741
      3 C          58.9887   93.0838   -0.7591 C.3     1  UNL1        0.0372
      4 C          58.7585   94.5421   -1.0249 C.3     1  UNL1        0.0799
      5 C          59.2835   95.5708   -0.0678 C.3     1  UNL1        0.0372
      6 C          60.0387   95.1414    1.1550 C.3     1  UNL1        0.0741
      7 N          58.0034   94.9715   -2.2477 N.am    1  UNL1       -0.2618
      8 C          56.5128   95.0902   -2.3671 C.2     1  UNL1        0.3074
      9 O          55.5158   94.8003   -1.2846 O.2     1  UNL1       -0.2523
     10 N          56.1944   95.5497   -3.7590 N.am    1  UNL1       -0.2635
     11 C          57.4881   95.7150   -4.4999 C.3     1  UNL1        0.1192
     12 C          58.6061   95.3576   -3.5659 C.3     1  UNL1        0.1191
     13 C          60.0699   95.3822   -3.8927 C.ar    1  UNL1       -0.0017
     14 C          60.7141   96.6558   -4.3542 C.ar    1  UNL1       -0.0026
     15 C          62.1778   96.6804   -4.6810 C.ar    1  UNL1        0.0006
     16 C          62.9974   95.4313   -4.5463 C.ar    1  UNL1        0.0114
     17 C          62.3532   94.1578   -4.0847 C.ar    1  UNL1        0.0574
     18 CL         63.1729   92.9087   -3.9500 Cl      1  UNL1       -0.0823
     19 C          60.8896   94.1332   -3.7580 C.ar    1  UNL1        0.0088
     20 C          54.8230   95.7999   -4.3128 C.3     1  UNL1        0.0819
     21 C          53.6806   96.0885   -3.3845 C.3     1  UNL1        0.0520
     22 C          52.3092   96.3387   -3.9383 C.3     1  UNL1        0.1439
     23 O          52.0803   96.3004   -5.4202 O.3     1  UNL1       -0.3537
     24 C          53.2227   96.0118   -6.3484 C.3     1  UNL1        0.1439
     25 C          54.5941   95.7616   -5.7946 C.3     1  UNL1        0.0520
     26 C          61.0240   93.2538    2.6436 C.3     1  UNL1        0.1003
     27 C          62.6216   91.0309    3.8710 C.3     1  UNL1        0.0519
     28 C          61.1816   91.2164    4.2481 C.ar    1  UNL1        0.0598
     29 N          60.5405   90.2905    5.2388 N.ar    1  UNL1       -0.2160
     30 C          59.1005   90.4760    5.6158 C.ar    1  UNL1        0.2293
     31 C          58.3018   91.5875    5.0022 C.ar    1  UNL1        0.0578
     32 C          58.9429   92.5134    4.0115 C.ar    1  UNL1        0.0031
     33 C          60.3829   92.3278    3.6344 C.ar    1  UNL1        0.0077
     34 O          58.4594   89.5501    6.6066 O.3     1  UNL1       -0.4361
     35 C          59.3128   88.6834    7.4844 C.ar    1  UNL1        0.1472
     36 C          60.1511   89.3033    8.5630 C.ar    1  UNL1        0.0376
     37 C          61.0046   88.4367    9.4408 C.ar    1  UNL1        0.0043
     38 C          61.0197   86.9502    9.2401 C.ar    1  UNL1        0.0142
     39 C          60.1815   86.3304    8.1616 C.ar    1  UNL1        0.0043
     40 C          59.3280   87.1970    7.2838 C.ar    1  UNL1        0.0376
     41 C          61.8732   86.0836   10.1179 C.2     1  UNL1        0.0729
     42 O          62.9043   85.1818    9.5067 O.co2   1  UNL1       -0.5446
     43 O          61.6955   86.1188   11.6070 O.co2   1  UNL1       -0.5446
@<TRIPOS>UNITY_ATOM_ATTR
42 1
charge -1
@<TRIPOS>BOND
     1    27    28    1
     2    28    29   ar
     3    29    30   ar
     4    30    34    1
     5    34    35    1
     6    35    36   ar
     7    36    37   ar
     8    37    38   ar
     9    38    41    1
    10    41    42   ar
    11    41    43   ar
    12    38    39   ar
    13    39    40   ar
    14    30    31   ar
    15    31    32   ar
    16    32    33   ar
    17    33    26    1
    18    26     1    1
    19     1     2    1
    20     2     3    1
    21     3     4    1
    22     4     7    1
    23     7     8   am
    24     8     9    2
    25     8    10   am
    26    10    20    1
    27    20    21    1
    28    21    22    1
    29    22    23    1
    30    23    24    1
    31    24    25    1
    32    10    11    1
    33    11    12    1
    34    12    13    1
    35    13    14   ar
    36    14    15   ar
    37    15    16   ar
    38    16    17   ar
    39    17    18    1
    40    17    19   ar
    41     4     5    1
    42     5     6    1
    43    33    28   ar
    44     6     1    1
    45    40    35   ar
    46    12     7    1
    47    19    13   ar
    48    25    20    1
@<TRIPOS>MOLECULE
*****
 43 48 0 0 0
SMALL
GASTEIGER

@<TRIPOS>ATOM
      1 N          60.2435   93.5941    1.8195 N.3     1  UNL1       -0.2688
      2 C          60.2929   92.3594    0.9691 C.3     1  UNL1        0.0741
      3 C          59.9375   92.4363   -0.4862 C.3     1  UNL1        0.0372
      4 C          59.5327   93.7480   -1.0910 C.3     1  UNL1        0.0799
      5 C          59.4833   94.9826   -0.2405 C.3     1  UNL1        0.0372
      6 C          59.8387   94.9056    1.2147 C.3     1  UNL1        0.0741
      7 N          59.1773   93.8250   -2.5462 N.am    1  UNL1       -0.2618
      8 C          57.8086   93.6373   -3.1307 C.2     1  UNL1        0.3074
      9 O          56.5551   93.3396   -2.3625 O.2     1  UNL1       -0.2523
     10 N          57.9136   93.7994   -4.6182 N.am    1  UNL1       -0.2635
     11 C          59.3471   94.0874   -4.9531 C.3     1  UNL1        0.1192
     12 C          60.1281   94.1032   -3.6725 C.3     1  UNL1        0.1191
     13 C          61.6012   94.3533   -3.5413 C.ar    1  UNL1       -0.0017
     14 C          62.0934   95.5852   -2.8410 C.ar    1  UNL1       -0.0026
     15 C          63.5666   95.8353   -2.7099 C.ar    1  UNL1        0.0006
     16 C          64.5476   94.8535   -3.2789 C.ar    1  UNL1        0.0114
     17 C          64.0554   93.6217   -3.9792 C.ar    1  UNL1        0.0574
     18 CL         65.0365   92.6400   -4.5483 Cl      1  UNL1       -0.0823
     19 C          62.5823   93.3716   -4.1104 C.ar    1  UNL1        0.0088
     20 C          56.7834   93.6924   -5.5987 C.3     1  UNL1        0.0819
     21 C          56.3581   92.3475   -6.1090 C.3     1  UNL1        0.0520
     22 C          55.2280   92.2405   -7.0894 C.3     1  UNL1        0.1439
     23 O          54.5232   93.4784   -7.5596 O.3     1  UNL1       -0.3537
     24 C          54.9485   94.8232   -7.0492 C.3     1  UNL1        0.1439
     25 C          56.0787   94.9302   -6.0688 C.3     1  UNL1        0.0520
     26 C          60.5989   93.5171    3.2748 C.3     1  UNL1        0.1003
     27 C          62.3916   91.2272    4.0115 C.3     1  UNL1        0.0519
     28 C          60.9686   91.2482    4.4854 C.ar    1  UNL1        0.0598
     29 N          60.4419   90.1243    5.3275 N.ar    1  UNL1       -0.2160
     30 C          59.0189   90.1452    5.8014 C.ar    1  UNL1        0.2293
     31 C          58.1225   91.2901    5.4331 C.ar    1  UNL1        0.0578
     32 C          58.6492   92.4141    4.5909 C.ar    1  UNL1        0.0031
     33 C          60.0722   92.3931    4.1170 C.ar    1  UNL1        0.0077
     34 O          58.4922   89.0212    6.6436 O.3     1  UNL1       -0.4361
     35 C          59.4045   88.3063    7.5958 C.ar    1  UNL1        0.1472
     36 C          59.5871   86.8214    7.4875 C.ar    1  UNL1        0.0376
     37 C          60.4994   86.1065    8.4396 C.ar    1  UNL1        0.0043
     38 C          61.2292   86.8765    9.5001 C.ar    1  UNL1        0.0142
     39 C          61.0466   88.3614    9.6084 C.ar    1  UNL1        0.0043
     40 C          60.1343   89.0763    8.6562 C.ar    1  UNL1        0.0376
     41 C          62.1415   86.1616   10.4522 C.2     1  UNL1        0.0729
     42 O          62.8505   84.9134   10.0173 O.co2   1  UNL1       -0.5446
     43 O          62.3448   86.6950   11.8394 O.co2   1  UNL1       -0.5446
@<TRIPOS>UNITY_ATOM_ATTR
42 1
charge -1
@<TRIPOS>BOND
     1    27    28    1
     2    28    29   ar
     3    29    30   ar
     4    30    34    1
     5    34    35    1
     6    35    36   ar
     7    36    37   ar
     8    37    38   ar
     9    38    41    1
    10    41    42   ar
    11    41    43   ar
    12    38    39   ar
    13    39    40   ar
    14    30    31   ar
    15    31    32   ar
    16    32    33   ar
    17    33    26    1
    18    26     1    1
    19     1     2    1
    20     2     3    1
    21     3     4    1
    22     4     7    1
    23     7     8   am
    24     8     9    2
    25     8    10   am
    26    10    20    1
    27    20    21    1
    28    21    22    1
    29    22    23    1
    30    23    24    1
    31    24    25    1
    32    10    11    1
    33    11    12    1
    34    12    13    1
    35    13    14   ar
    36    14    15   ar
    37    15    16   ar
    38    16    17   ar
    39    17    18    1
    40    17    19   ar
    41     4     5    1
    42     5     6    1
    43    33    28   ar
    44     6     1    1
    45    40    35   ar
    46    12     7    1
    47    19    13   ar
    48    25    20    1
@<TRIPOS>MOLECULE
*****
 43 48 0 0 0
SMALL
GASTEIGER

@<TRIPOS>ATOM
      1 N          60.0844   89.0399    8.3769 N.3     1  UNL1       -0.2688
      2 C          61.2822   88.1393    8.4439 C.3     1  UNL1        0.0741
      3 C          62.1896   88.1857    9.6375 C.3     1  UNL1        0.0372
      4 C          61.8991   89.1326   10.7641 C.3     1  UNL1        0.0799
      5 C          60.7014   90.0331   10.6970 C.3     1  UNL1        0.0372
      6 C          59.7941   89.9867    9.5035 C.3     1  UNL1        0.0741
      7 N          62.8064   89.1790   11.9576 N.am    1  UNL1       -0.2618
      8 C          63.3466   90.4186   12.6069 C.2     1  UNL1        0.3074
      9 O          63.0743   91.8295   12.1767 O.2     1  UNL1       -0.2523
     10 N          64.2069   89.9996   13.7621 N.am    1  UNL1       -0.2635
     11 C          64.1985   88.5010   13.8267 C.3     1  UNL1        0.1192
     12 C          63.3329   87.9939   12.7115 C.3     1  UNL1        0.1191
     13 C          63.0445   86.5543   12.4042 C.ar    1  UNL1       -0.0017
     14 C          62.3105   86.1880   11.1483 C.ar    1  UNL1       -0.0026
     15 C          62.0221   84.7484   10.8409 C.ar    1  UNL1        0.0006
     16 C          62.4677   83.6751   11.7894 C.ar    1  UNL1        0.0114
     17 C          63.2017   84.0415   13.0452 C.ar    1  UNL1        0.0574
     18 CL         63.6473   82.9681   13.9936 Cl      1  UNL1       -0.0823
     19 C          63.4901   85.4809   13.3525 C.ar    1  UNL1        0.0088
     20 C          64.9459   90.9180   14.6897 C.3     1  UNL1        0.0819
     21 C          64.2625   91.4603   15.9099 C.3     1  UNL1        0.0520
     22 C          65.0015   92.3787   16.8375 C.3     1  UNL1        0.1439
     23 O          66.4238   92.7547   16.5449 O.3     1  UNL1       -0.3537
     24 C          67.1071   92.2124   15.3247 C.3     1  UNL1        0.1439
     25 C          66.3681   91.2940   14.3971 C.3     1  UNL1        0.0520
     26 C          59.1771   88.9935    7.1834 C.3     1  UNL1        0.1003
     27 C          56.6756   90.1327    5.9814 C.3     1  UNL1        0.0519
     28 C          58.0175   90.6273    5.5292 C.ar    1  UNL1        0.0598
     29 N          58.1088   91.6915    4.4761 N.ar    1  UNL1       -0.2160
     30 C          59.4507   92.1861    4.0239 C.ar    1  UNL1        0.2293
     31 C          60.7015   91.6166    4.6249 C.ar    1  UNL1        0.0578
     32 C          60.6103   90.5524    5.6780 C.ar    1  UNL1        0.0031
     33 C          59.2683   90.0578    6.1302 C.ar    1  UNL1        0.0077
     34 O          59.5419   93.2504    2.9707 O.3     1  UNL1       -0.4361
     35 C          60.8519   93.5252    2.2936 C.ar    1  UNL1        0.1472
     36 C          61.1779   94.9127    1.8260 C.ar    1  UNL1        0.0376
     37 C          62.4879   95.1875    1.1489 C.ar    1  UNL1        0.0043
     38 C          63.4718   94.0747    0.9394 C.ar    1  UNL1        0.0142
     39 C          63.1457   92.6873    1.4070 C.ar    1  UNL1        0.0043
     40 C          61.8358   92.4125    2.0841 C.ar    1  UNL1        0.0376
     41 C          64.7818   94.3495    0.2623 C.2     1  UNL1        0.0729
     42 O          65.9865   93.5202    0.5950 O.co2   1  UNL1       -0.5446
     43 O          64.8870   95.4538   -0.7475 O.co2   1  UNL1       -0.5446
@<TRIPOS>UNITY_ATOM_ATTR
42 1
charge -1
@<TRIPOS>BOND
     1    27    28    1
     2    28    29   ar
     3    29    30   ar
     4    30    34    1
     5    34    35    1
     6    35    36   ar
     7    36    37   ar
     8    37    38   ar
     9    38    41    1
    10    41    42   ar
    11    41    43   ar
    12    38    39   ar
    13    39    40   ar
    14    30    31   ar
    15    31    32   ar
    16    32    33   ar
    17    33    26    1
    18    26     1    1
    19     1     2    1
    20     2     3    1
    21     3     4    1
    22     4     7    1
    23     7     8   am
    24     8     9    2
    25     8    10   am
    26    10    20    1
    27    20    21    1
    28    21    22    1
    29    22    23    1
    30    23    24    1
    31    24    25    1
    32    10    11    1
    33    11    12    1
    34    12    13    1
    35    13    14   ar
    36    14    15   ar
    37    15    16   ar
    38    16    17   ar
    39    17    18    1
    40    17    19   ar
    41     4     5    1
    42     5     6    1
    43    33    28   ar
    44     6     1    1
    45    40    35   ar
    46    12     7    1
    47    19    13   ar
    48    25    20    1
@<TRIPOS>MOLECULE
*****
 43 48 0 0 0
SMALL
GASTEIGER

@<TRIPOS>ATOM
      1 N          59.3728   89.0699    7.6683 N.3     1  UNL1       -0.2688
      2 C          59.7024   89.8347    8.9159 C.3     1  UNL1        0.0741
      3 C          60.5470   89.2023    9.9821 C.3     1  UNL1        0.0372
      4 C          61.0619   87.8052    9.8008 C.3     1  UNL1        0.0799
      5 C          60.7323   87.0404    8.5532 C.3     1  UNL1        0.0372
      6 C          59.8877   87.6728    7.4870 C.3     1  UNL1        0.0741
      7 N          61.9065   87.1728   10.8670 N.am    1  UNL1       -0.2618
      8 C          61.8718   85.7312   11.2799 C.2     1  UNL1        0.3074
      9 O          60.9864   84.6688   10.6991 O.2     1  UNL1       -0.2523
     10 N          62.8779   85.5385   12.3756 N.am    1  UNL1       -0.2635
     11 C          63.5345   86.8610   12.6399 C.3     1  UNL1        0.1192
     12 C          62.9341   87.8711   11.7075 C.3     1  UNL1        0.1191
     13 C          63.2975   89.3243   11.6294 C.ar    1  UNL1       -0.0017
     14 C          63.0241   90.0994   10.3746 C.ar    1  UNL1       -0.0026
     15 C          63.3875   91.5526   10.2964 C.ar    1  UNL1        0.0006
     16 C          64.0244   92.2307   11.4731 C.ar    1  UNL1        0.0114
     17 C          64.2979   91.4556   12.7278 C.ar    1  UNL1        0.0574
     18 CL         64.9348   92.1338   13.9045 Cl      1  UNL1       -0.0823
     19 C          63.9344   90.0025   12.8060 C.ar    1  UNL1        0.0088
     20 C          63.1753   84.2495   13.0828 C.3     1  UNL1        0.0819
     21 C          63.8776   83.1405   12.3569 C.3     1  UNL1        0.0520
     22 C          64.1749   81.8516   13.0641 C.3     1  UNL1        0.1439
     23 O          63.7700   81.6716   14.4972 O.3     1  UNL1       -0.3537
     24 C          63.0678   82.7806   15.2230 C.3     1  UNL1        0.1439
     25 C          62.7704   84.0696   14.5158 C.3     1  UNL1        0.0520
     26 C          58.5282   89.7022    6.6021 C.3     1  UNL1        0.1003
     27 C          56.8161   91.5436    4.9657 C.3     1  UNL1        0.0519
     28 C          58.3024   91.5249    4.7645 C.ar    1  UNL1        0.0598
     29 N          58.9327   92.4269    3.7452 N.ar    1  UNL1       -0.2160
     30 C          60.4190   92.4082    3.5440 C.ar    1  UNL1        0.2293
     31 C          61.2751   91.4876    4.3622 C.ar    1  UNL1        0.0578
     32 C          60.6448   90.5856    5.3815 C.ar    1  UNL1        0.0031
     33 C          59.1585   90.6043    5.5827 C.ar    1  UNL1        0.0077
     34 O          61.0493   93.3103    2.5246 O.3     1  UNL1       -0.4361
     35 C          60.3730   93.5392    1.2054 C.ar    1  UNL1        0.1472
     36 C          60.3912   92.4664    0.1572 C.ar    1  UNL1        0.0376
     37 C          59.7149   92.6953   -1.1620 C.ar    1  UNL1        0.0043
     38 C          59.0204   93.9970   -1.4329 C.ar    1  UNL1        0.0142
     39 C          59.0022   95.0697   -0.3847 C.ar    1  UNL1        0.0043
     40 C          59.6785   94.8408    0.9345 C.ar    1  UNL1        0.0376
     41 C          58.3441   94.2259   -2.7521 C.2     1  UNL1        0.0729
     42 O          57.5754   95.4915   -2.9912 O.co2   1  UNL1       -0.5446
     43 O          58.4366   93.1891   -3.8322 O.co2   1  UNL1       -0.5446
@<TRIPOS>UNITY_ATOM_ATTR
42 1
charge -1
@<TRIPOS>BOND
     1    27    28    1
     2    28    29   ar
     3    29    30   ar
     4    30    34    1
     5    34    35    1
     6    35    36   ar
     7    36    37   ar
     8    37    38   ar
     9    38    41    1
    10    41    42   ar
    11    41    43   ar
    12    38    39   ar
    13    39    40   ar
    14    30    31   ar
    15    31    32   ar
    16    32    33   ar
    17    33    26    1
    18    26     1    1
    19     1     2    1
    20     2     3    1
    21     3     4    1
    22     4     7    1
    23     7     8   am
    24     8     9    2
    25     8    10   am
    26    10    20    1
    27    20    21    1
    28    21    22    1
    29    22    23    1
    30    23    24    1
    31    24    25    1
    32    10    11    1
    33    11    12    1
    34    12    13    1
    35    13    14   ar
    36    14    15   ar
    37    15    16   ar
    38    16    17   ar
    39    17    18    1
    40    17    19   ar
    41     4     5    1
    42     5     6    1
    43    33    28   ar
    44     6     1    1
    45    40    35   ar
    46    12     7    1
    47    19    13   ar
    48    25    20    1
@<TRIPOS>MOLECULE
*****
 43 48 0 0 0
SMALL
GASTEIGER

@<TRIPOS>ATOM
      1 N          60.1877   89.0139    8.0839 N.3     1  UNL1       -0.2688
      2 C          60.0072   90.1074    9.0948 C.3     1  UNL1        0.0741
      3 C          60.8609   90.1373   10.3277 C.3     1  UNL1        0.0372
      4 C          61.8952   89.0737   10.5499 C.3     1  UNL1        0.0799
      5 C          62.0756   87.9803    9.5390 C.3     1  UNL1        0.0372
      6 C          61.2219   87.9504    8.3061 C.3     1  UNL1        0.0741
      7 N          62.7489   89.1037   11.7829 N.am    1  UNL1       -0.2618
      8 C          63.2246   90.3344   12.4962 C.2     1  UNL1        0.3074
      9 O          62.9302   91.7514   12.1018 O.2     1  UNL1       -0.2523
     10 N          64.0465   89.8995   13.6732 N.am    1  UNL1       -0.2635
     11 C          64.0788   88.4000   13.6873 C.3     1  UNL1        0.1192
     12 C          63.2768   87.9081   12.5190 C.3     1  UNL1        0.1191
     13 C          63.0436   86.4726   12.1514 C.ar    1  UNL1       -0.0017
     14 C          62.6966   85.4730   13.2147 C.ar    1  UNL1       -0.0026
     15 C          62.4635   84.0375   12.8471 C.ar    1  UNL1        0.0006
     16 C          62.5773   83.6017   11.4164 C.ar    1  UNL1        0.0114
     17 C          62.9242   84.6013   10.3532 C.ar    1  UNL1        0.0574
     18 CL         63.0380   84.1654    8.9224 Cl      1  UNL1       -0.0823
     19 C          63.1574   86.0367   10.7207 C.ar    1  UNL1        0.0088
     20 C          64.7183   90.8052   14.6624 C.3     1  UNL1        0.0819
     21 C          66.1244   91.2682   14.4207 C.3     1  UNL1        0.0520
     22 C          66.7962   92.1739   15.4099 C.3     1  UNL1        0.1439
     23 O          66.0618   92.6165   16.6407 O.3     1  UNL1       -0.3537
     24 C          64.6556   92.1535   16.8823 C.3     1  UNL1        0.1439
     25 C          63.9839   91.2478   15.8931 C.3     1  UNL1        0.0520
     26 C          59.3340   88.9839    6.8509 C.3     1  UNL1        0.1003
     27 C          56.7682   90.2545    5.9552 C.3     1  UNL1        0.0519
     28 C          58.0798   90.7712    5.4428 C.ar    1  UNL1        0.0598
     29 N          58.1086   91.9232    4.4825 N.ar    1  UNL1       -0.2160
     30 C          59.4203   92.4399    3.9701 C.ar    1  UNL1        0.2293
     31 C          60.7032   91.8046    4.4180 C.ar    1  UNL1        0.0578
     32 C          60.6744   90.6527    5.3782 C.ar    1  UNL1        0.0031
     33 C          59.3627   90.1360    5.8906 C.ar    1  UNL1        0.0077
     34 O          59.4490   93.5919    3.0099 O.3     1  UNL1       -0.4361
     35 C          60.2572   93.4979    1.7497 C.ar    1  UNL1        0.1472
     36 C          61.6673   94.0088    1.7231 C.ar    1  UNL1        0.0376
     37 C          62.4754   93.9147    0.4629 C.ar    1  UNL1        0.0043
     38 C          61.8734   93.3097   -0.7707 C.ar    1  UNL1        0.0142
     39 C          60.4634   92.7988   -0.7441 C.ar    1  UNL1        0.0043
     40 C          59.6553   92.8929    0.5161 C.ar    1  UNL1        0.0376
     41 C          62.6816   93.2157   -2.0309 C.2     1  UNL1        0.0729
     42 O          63.8196   92.2427   -2.1212 O.co2   1  UNL1       -0.5446
     43 O          62.3516   94.0946   -3.2008 O.co2   1  UNL1       -0.5446
@<TRIPOS>UNITY_ATOM_ATTR
42 1
charge -1
@<TRIPOS>BOND
     1    27    28    1
     2    28    29   ar
     3    29    30   ar
     4    30    34    1
     5    34    35    1
     6    35    36   ar
     7    36    37   ar
     8    37    38   ar
     9    38    41    1
    10    41    42   ar
    11    41    43   ar
    12    38    39   ar
    13    39    40   ar
    14    30    31   ar
    15    31    32   ar
    16    32    33   ar
    17    33    26    1
    18    26     1    1
    19     1     2    1
    20     2     3    1
    21     3     4    1
    22     4     7    1
    23     7     8   am
    24     8     9    2
    25     8    10   am
    26    10    20    1
    27    20    21    1
    28    21    22    1
    29    22    23    1
    30    23    24    1
    31    24    25    1
    32    10    11    1
    33    11    12    1
    34    12    13    1
    35    13    14   ar
    36    14    15   ar
    37    15    16   ar
    38    16    17   ar
    39    17    18    1
    40    17    19   ar
    41     4     5    1
    42     5     6    1
    43    33    28   ar
    44     6     1    1
    45    40    35   ar
    46    12     7    1
    47    19    13   ar
    48    25    20    1
@<TRIPOS>MOLECULE
*****
 43 48 0 0 0
SMALL
GASTEIGER

@<TRIPOS>ATOM
      1 N          59.6244   93.4691    2.6913 N.3     1  UNL1       -0.2688
      2 C          59.1093   92.3142    1.8844 C.3     1  UNL1        0.0741
      3 C          59.0090   92.4275    0.3920 C.3     1  UNL1        0.0372
      4 C          59.4238   93.6956   -0.2934 C.3     1  UNL1        0.0799
      5 C          59.9388   94.8505    0.5134 C.3     1  UNL1        0.0372
      6 C          60.0391   94.7372    2.0058 C.3     1  UNL1        0.0741
      7 N          59.3235   93.8089   -1.7858 N.am    1  UNL1       -0.2618
      8 C          58.1015   93.5330   -2.6108 C.2     1  UNL1        0.3074
      9 O          56.7653   93.0953   -2.0884 O.2     1  UNL1       -0.2523
     10 N          58.4504   93.7715   -4.0501 N.am    1  UNL1       -0.2635
     11 C          59.8879   94.1949   -4.1146 C.3     1  UNL1        0.1192
     12 C          60.4275   94.2180   -2.7152 C.3     1  UNL1        0.1191
     13 C          61.8257   94.5857   -2.3154 C.ar    1  UNL1       -0.0017
     14 C          62.4768   95.8045   -2.8991 C.ar    1  UNL1       -0.0026
     15 C          63.8750   96.1722   -2.4993 C.ar    1  UNL1        0.0006
     16 C          64.6222   95.3211   -1.5158 C.ar    1  UNL1        0.0114
     17 C          63.9712   94.1023   -0.9321 C.ar    1  UNL1        0.0574
     18 CL         64.7184   93.2512    0.0515 Cl      1  UNL1       -0.0823
     19 C          62.5730   93.7346   -1.3319 C.ar    1  UNL1        0.0088
     20 C          57.5242   93.6143   -5.2195 C.3     1  UNL1        0.0819
     21 C          57.7188   92.4813   -6.1831 C.3     1  UNL1        0.0520
     22 C          56.7926   92.3241   -7.3525 C.3     1  UNL1        0.1439
     23 O          55.6720   93.2997   -7.5583 O.3     1  UNL1       -0.3537
     24 C          55.4775   94.4326   -6.5946 C.3     1  UNL1        0.1439
     25 C          56.4036   94.5899   -5.4252 C.3     1  UNL1        0.0520
     26 C          59.7247   93.3558    4.1836 C.3     1  UNL1        0.1003
     27 C          56.9706   92.3638    4.8398 C.3     1  UNL1        0.0519
     28 C          58.1691   91.5270    5.1764 C.ar    1  UNL1        0.0598
     29 N          57.9906   90.1942    5.8410 N.ar    1  UNL1       -0.2160
     30 C          59.1892   89.3575    6.1776 C.ar    1  UNL1        0.2293
     31 C          60.5662   89.8534    5.8495 C.ar    1  UNL1        0.0578
     32 C          60.7447   91.1862    5.1849 C.ar    1  UNL1        0.0031
     33 C          59.5462   92.0230    4.8483 C.ar    1  UNL1        0.0077
     34 O          59.0106   88.0246    6.8423 O.3     1  UNL1       -0.4361
     35 C          59.8599   87.6552    8.0223 C.ar    1  UNL1        0.1472
     36 C          60.1277   88.6648    9.0989 C.ar    1  UNL1        0.0376
     37 C          60.9770   88.2954   10.2789 C.ar    1  UNL1        0.0043
     38 C          61.5584   86.9165   10.3822 C.ar    1  UNL1        0.0142
     39 C          61.2905   85.9070    9.3056 C.ar    1  UNL1        0.0043
     40 C          60.4412   86.2764    8.1256 C.ar    1  UNL1        0.0376
     41 C          62.4076   86.5471   11.5622 C.2     1  UNL1        0.0729
     42 O          63.0969   87.6179   12.3547 O.co2   1  UNL1       -0.5446
     43 O          62.5675   85.1068   11.9496 O.co2   1  UNL1       -0.5446
@<TRIPOS>UNITY_ATOM_ATTR
42 1
charge -1
@<TRIPOS>BOND
     1    27    28    1
     2    28    29   ar
     3    29    30   ar
     4    30    34    1
     5    34    35    1
     6    35    36   ar
     7    36    37   ar
     8    37    38   ar
     9    38    41    1
    10    41    42   ar
    11    41    43   ar
    12    38    39   ar
    13    39    40   ar
    14    30    31   ar
    15    31    32   ar
    16    32    33   ar
    17    33    26    1
    18    26     1    1
    19     1     2    1
    20     2     3    1
    21     3     4    1
    22     4     7    1
    23     7     8   am
    24     8     9    2
    25     8    10   am
    26    10    20    1
    27    20    21    1
    28    21    22    1
    29    22    23    1
    30    23    24    1
    31    24    25    1
    32    10    11    1
    33    11    12    1
    34    12    13    1
    35    13    14   ar
    36    14    15   ar
    37    15    16   ar
    38    16    17   ar
    39    17    18    1
    40    17    19   ar
    41     4     5    1
    42     5     6    1
    43    33    28   ar
    44     6     1    1
    45    40    35   ar
    46    12     7    1
    47    19    13   ar
    48    25    20    1
@<TRIPOS>MOLECULE
*****
 43 48 0 0 0
SMALL
GASTEIGER

@<TRIPOS>ATOM
      1 N          64.2778   89.7032   14.3316 N.3     1  UNL1       -0.2688
      2 C          63.4538   89.8107   13.0828 C.3     1  UNL1        0.0741
      3 C          62.9813   88.5688   12.3868 C.3     1  UNL1        0.0372
      4 C          63.3328   87.2194   12.9397 C.3     1  UNL1        0.0799
      5 C          64.1567   87.1119   14.1885 C.3     1  UNL1        0.0372
      6 C          64.6293   88.3539   14.8844 C.3     1  UNL1        0.0741
      7 N          62.8603   85.9774   12.2438 N.am    1  UNL1       -0.2618
      8 C          63.2721   84.5726   12.5707 C.2     1  UNL1        0.3074
      9 O          64.2289   84.1631   13.6509 O.2     1  UNL1       -0.2523
     10 N          62.5593   83.6492   11.6277 N.am    1  UNL1       -0.2635
     11 C          61.7069   84.4833   10.7180 C.3     1  UNL1        0.1192
     12 C          61.8929   85.9222   11.0988 C.3     1  UNL1        0.1191
     13 C          61.2281   87.0993   10.4486 C.ar    1  UNL1       -0.0017
     14 C          61.2167   87.2229    8.9537 C.ar    1  UNL1       -0.0026
     15 C          60.5519   88.3999    8.3035 C.ar    1  UNL1        0.0006
     16 C          59.8987   89.4533    9.1482 C.ar    1  UNL1        0.0114
     17 C          59.9102   89.3297   10.6431 C.ar    1  UNL1        0.0574
     18 CL         59.2569   90.3833   11.4877 Cl      1  UNL1       -0.0823
     19 C          60.5748   88.1528   11.2932 C.ar    1  UNL1        0.0088
     20 C          62.6781   82.1542   11.5994 C.3     1  UNL1        0.0819
     21 C          63.0719   81.4571   10.3309 C.3     1  UNL1        0.0520
     22 C          63.1907   79.9621   10.3026 C.3     1  UNL1        0.1439
     23 O          62.9158   79.1642   11.5428 O.3     1  UNL1       -0.3537
     24 C          62.5221   79.8614   12.8112 C.3     1  UNL1        0.1439
     25 C          62.4033   81.3564   12.8395 C.3     1  UNL1        0.0520
     26 C          64.7503   90.9452   15.0275 C.3     1  UNL1        0.1003
     27 C          66.6934   92.7938   16.3719 C.3     1  UNL1        0.0519
     28 C          66.3815   92.9643   14.9146 C.ar    1  UNL1        0.0598
     29 N          67.0410   94.0590   14.1295 N.ar    1  UNL1       -0.2160
     30 C          66.7291   94.2295   12.6722 C.ar    1  UNL1        0.2293
     31 C          65.7576   93.3052   12.0000 C.ar    1  UNL1        0.0578
     32 C          65.0981   92.2104   12.7851 C.ar    1  UNL1        0.0031
     33 C          65.4100   92.0400   14.2424 C.ar    1  UNL1        0.0077
     34 O          67.3887   95.3243   11.8871 O.3     1  UNL1       -0.4361
     35 C          66.8942   95.6640   10.5123 C.ar    1  UNL1        0.1472
     36 C          67.6236   95.1528    9.3053 C.ar    1  UNL1        0.0376
     37 C          67.1290   95.4924    7.9305 C.ar    1  UNL1        0.0043
     38 C          65.9050   96.3433    7.7627 C.ar    1  UNL1        0.0142
     39 C          65.1757   96.8544    8.9697 C.ar    1  UNL1        0.0043
     40 C          65.6703   96.5147   10.3445 C.ar    1  UNL1        0.0376
     41 C          65.4105   96.6829    6.3879 C.2     1  UNL1        0.0729
     42 O          63.9408   96.8513    6.1399 O.co2   1  UNL1       -0.5446
     43 O          66.3857   96.8542    5.2611 O.co2   1  UNL1       -0.5446
@<TRIPOS>UNITY_ATOM_ATTR
42 1
charge -1
@<TRIPOS>BOND
     1    27    28    1
     2    28    29   ar
     3    29    30   ar
     4    30    34    1
     5    34    35    1
     6    35    36   ar
     7    36    37   ar
     8    37    38   ar
     9    38    41    1
    10    41    42   ar
    11    41    43   ar
    12    38    39   ar
    13    39    40   ar
    14    30    31   ar
    15    31    32   ar
    16    32    33   ar
    17    33    26    1
    18    26     1    1
    19     1     2    1
    20     2     3    1
    21     3     4    1
    22     4     7    1
    23     7     8   am
    24     8     9    2
    25     8    10   am
    26    10    20    1
    27    20    21    1
    28    21    22    1
    29    22    23    1
    30    23    24    1
    31    24    25    1
    32    10    11    1
    33    11    12    1
    34    12    13    1
    35    13    14   ar
    36    14    15   ar
    37    15    16   ar
    38    16    17   ar
    39    17    18    1
    40    17    19   ar
    41     4     5    1
    42     5     6    1
    43    33    28   ar
    44     6     1    1
    45    40    35   ar
    46    12     7    1
    47    19    13   ar
    48    25    20    1
