@<TRIPOS>MOLECULE
*****
 34 36 0 0 0
SMALL
GASTEIGER

@<TRIPOS>ATOM
      1 C          61.4698   89.0999   10.4917 C.3     1  UNL1        0.1812
      2 O          62.6806   88.3570   10.0102 O.3     1  UNL1       -0.3784
      3 H          62.5869   87.4148   10.2210 H       1  UNL1        0.2106
      4 C          60.2590   89.8429   10.9733 C.3     1  UNL1        0.4197
      5 F          59.0481   90.5859   11.4549 F       1  UNL1       -0.1676
      6 F          59.8594   90.1124    9.5528 F       1  UNL1       -0.1676
      7 F          60.6586   89.5735   12.3937 F       1  UNL1       -0.1676
      8 C          60.8880   87.8173   11.0078 C.3     1  UNL1        0.0398
      9 C          61.7063   86.5604   10.9865 C.3     1  UNL1        0.0212
     10 C          62.6126   87.1327   12.0359 C.3     1  UNL1        0.0044
     11 C          60.8001   85.9881    9.9372 C.3     1  UNL1        0.0044
     12 C          62.9183   85.6029    8.4147 C.3     1  UNL1        0.0307
     13 C          63.1307   84.8248    9.6794 C.ar    1  UNL1       -0.0257
     14 C          63.9491   83.5679    9.6581 C.ar    1  UNL1       -0.0023
     15 C          64.1615   82.7897   10.9227 C.ar    1  UNL1        0.0293
     16 C          63.5555   83.2684   12.2087 C.ar    1  UNL1        0.1398
     17 F          63.7680   82.4903   13.4733 F       1  UNL1       -0.2042
     18 C          62.7372   84.5253   12.2300 C.ar    1  UNL1        0.0250
     19 C          62.5247   85.3035   10.9653 C.ar    1  UNL1       -0.0244
     20 C          62.0516   90.3826    9.9757 C.3     1  UNL1        0.0811
     21 C          63.1648   91.0553   10.7229 C.2     1  UNL1        0.0613
     22 C          63.5482   90.8010   12.1507 C.2     1  UNL1        0.0160
     23 C          64.7104   91.6889   12.4837 C.2     1  UNL1        0.0183
     24 C          65.5070   91.8699   13.7418 C.2     1  UNL1        0.0246
     25 C          66.6385   92.8541   13.7779 C.2     1  UNL1        0.1294
     26 N          66.9733   93.6572   12.5561 N.2     1  UNL1       -0.2594
     27 C          66.1767   93.4762   11.2981 C.3     1  UNL1        0.1709
     28 C          65.0453   92.4921   11.2619 C.2     1  UNL1        0.0832
     29 N          64.0900   92.1004   10.1736 N.2     1  UNL1       -0.2519
     30 C          67.4351   93.0352   15.0359 C.2     1  UNL1        0.2601
     31 N          66.7358   93.1260   16.3599 N.am    1  UNL1       -0.3241
     32 O          68.9309   93.1254   14.9700 O.2     1  UNL1       -0.2687
     33 H          65.7541   93.0667   16.4032 H       1  UNL1        0.1453
     34 H          67.2587   93.2448   17.1856 H       1  UNL1        0.1453
@<TRIPOS>BOND
     1    12    13    1
     2    13    14   ar
     3    14    15   ar
     4    15    16   ar
     5    16    17    1
     6    16    18   ar
     7    18    19   ar
     8    19     9    1
     9     9    10    1
    10     9    11    1
    11     9     8    1
    12     8     1    1
    13     1     2    1
    14     1    20    1
    15    20    21    1
    16    21    22    2
    17    22    23    1
    18    23    24    2
    19    24    25    1
    20    25    30    1
    21    30    31   am
    22    30    32    2
    23    25    26    2
    24    26    27    1
    25    27    28    1
    26    28    29    2
    27     1     4    1
    28     4     5    1
    29     4     6    1
    30     4     7    1
    31    19    13   ar
    32    29    21    1
    33    28    23    1
    34     2     3    1
    35    31    33    1
    36    31    34    1
@<TRIPOS>MOLECULE
*****
 34 36 0 0 0
SMALL
GASTEIGER

@<TRIPOS>ATOM
      1 C          61.9519   86.9033   10.4503 C.3     1  UNL1        0.1812
      2 O          63.0370   86.9595   11.4844 O.3     1  UNL1       -0.3784
      3 H          63.5907   86.1661   11.4156 H       1  UNL1        0.2106
      4 C          60.8668   86.8470    9.4162 C.3     1  UNL1        0.4197
      5 F          59.7817   86.7907    8.3821 F       1  UNL1       -0.1676
      6 F          59.8866   87.3866   10.4154 F       1  UNL1       -0.1676
      7 F          61.8469   86.3075    8.4171 F       1  UNL1       -0.1676
      8 C          62.4764   85.5819    9.9718 C.3     1  UNL1        0.0398
      9 C          62.7357   84.4779   10.9536 C.3     1  UNL1        0.0212
     10 C          63.7922   83.9196   10.0469 C.3     1  UNL1        0.0044
     11 C          61.6793   85.0361   11.8604 C.3     1  UNL1        0.0044
     12 C          64.0180   85.0907   13.5956 C.3     1  UNL1        0.0307
     13 C          63.6362   83.6803   13.2564 C.ar    1  UNL1       -0.0257
     14 C          63.8955   82.5763   14.2382 C.ar    1  UNL1       -0.0023
     15 C          63.5138   81.1659   13.8991 C.ar    1  UNL1        0.0293
     16 C          62.8726   80.8595   12.5780 C.ar    1  UNL1        0.1398
     17 F          62.4908   79.4491   12.2389 F       1  UNL1       -0.2042
     18 C          62.6132   81.9635   11.5962 C.ar    1  UNL1        0.0250
     19 C          62.9951   83.3739   11.9354 C.ar    1  UNL1       -0.0244
     20 C          61.4274   88.2246   10.9288 C.3     1  UNL1        0.0811
     21 C          62.3814   89.3285   11.2771 C.2     1  UNL1        0.0613
     22 C          62.9487   90.3374   10.3230 C.2     1  UNL1        0.0160
     23 C          63.8535   91.2498   11.0969 C.2     1  UNL1        0.0183
     24 C          64.6837   92.4283   10.6823 C.2     1  UNL1        0.0246
     25 C          65.5058   93.1618   11.7003 C.2     1  UNL1        0.1294
     26 N          65.4977   92.7168   13.1327 N.2     1  UNL1       -0.2594
     27 C          64.6675   91.5383   13.5473 C.3     1  UNL1        0.1709
     28 C          63.8454   90.8048   12.5294 C.2     1  UNL1        0.0832
     29 N          62.9355   89.6173   12.6408 N.2     1  UNL1       -0.2519
     30 C          66.3361   94.3403   11.2857 C.2     1  UNL1        0.2601
     31 N          65.8929   95.7301   11.6354 N.am    1  UNL1       -0.3241
     32 O          67.6094   94.1290   10.5215 O.2     1  UNL1       -0.2687
     33 H          65.0572   95.8687   12.1370 H       1  UNL1        0.1453
     34 H          66.4378   96.5036   11.3633 H       1  UNL1        0.1453
@<TRIPOS>BOND
     1    12    13    1
     2    13    14   ar
     3    14    15   ar
     4    15    16   ar
     5    16    17    1
     6    16    18   ar
     7    18    19   ar
     8    19     9    1
     9     9    10    1
    10     9    11    1
    11     9     8    1
    12     8     1    1
    13     1     2    1
    14     1    20    1
    15    20    21    1
    16    21    22    2
    17    22    23    1
    18    23    24    2
    19    24    25    1
    20    25    30    1
    21    30    31   am
    22    30    32    2
    23    25    26    2
    24    26    27    1
    25    27    28    1
    26    28    29    2
    27     1     4    1
    28     4     5    1
    29     4     6    1
    30     4     7    1
    31    19    13   ar
    32    29    21    1
    33    28    23    1
    34     2     3    1
    35    31    33    1
    36    31    34    1
@<TRIPOS>MOLECULE
*****
 34 36 0 0 0
SMALL
GASTEIGER

@<TRIPOS>ATOM
      1 C          63.6536   87.1035   16.0594 C.3     1  UNL1        0.1812
      2 O          64.2855   87.2785   14.7103 O.3     1  UNL1       -0.3784
      3 H          64.6665   86.4351   14.4198 H       1  UNL1        0.2106
      4 C          63.0217   86.9284   17.4085 C.3     1  UNL1        0.4197
      5 F          62.3898   86.7533   18.7576 F       1  UNL1       -0.1676
      6 F          62.0694   88.0476   17.1077 F       1  UNL1       -0.1676
      7 F          63.9740   85.8092   17.7093 F       1  UNL1       -0.1676
      8 C          64.0551   85.6581   16.0599 C.3     1  UNL1        0.0398
      9 C          63.7156   84.7850   14.8884 C.3     1  UNL1        0.0212
     10 C          62.2797   84.7620   15.3217 C.3     1  UNL1        0.0044
     11 C          65.1515   84.8081   14.4552 C.3     1  UNL1        0.0044
     12 C          63.0099   86.0240   12.2489 C.3     1  UNL1        0.0307
     13 C          63.0233   84.5314   12.3972 C.ar    1  UNL1       -0.0257
     14 C          62.6838   83.6583   11.2257 C.ar    1  UNL1       -0.0023
     15 C          62.6972   82.1657   11.3739 C.ar    1  UNL1        0.0293
     16 C          63.0501   81.5462   12.6936 C.ar    1  UNL1        0.1398
     17 F          63.0635   80.0536   12.8418 F       1  UNL1       -0.2042
     18 C          63.3896   82.4193   13.8652 C.ar    1  UNL1        0.0250
     19 C          63.3762   83.9119   13.7169 C.ar    1  UNL1       -0.0244
     20 C          63.2521   88.5487   16.0589 C.3     1  UNL1        0.0811
     21 C          63.5756   89.4165   14.8790 C.2     1  UNL1        0.0613
     22 C          64.6485   90.4633   14.8222 C.2     1  UNL1        0.0160
     23 C          64.6190   91.0837   13.4568 C.2     1  UNL1        0.0183
     24 C          65.4447   92.1669   12.8285 C.2     1  UNL1        0.0246
     25 C          65.1793   92.5868   11.4131 C.2     1  UNL1        0.1294
     26 N          64.0882   91.9235   10.6261 N.2     1  UNL1       -0.2594
     27 C          63.2625   90.8403   11.2544 C.3     1  UNL1        0.1709
     28 C          63.5279   90.4204   12.6697 C.2     1  UNL1        0.0832
     29 N          62.8830   89.3900   13.5487 N.2     1  UNL1       -0.2519
     30 C          66.0050   93.6701   10.7848 C.2     1  UNL1        0.2601
     31 N          65.3617   94.9623   10.3766 N.am    1  UNL1       -0.3241
     32 O          67.4740   93.4612   10.5646 O.2     1  UNL1       -0.2687
     33 H          64.3976   95.0994   10.5211 H       1  UNL1        0.1453
     34 H          65.9036   95.6732    9.9642 H       1  UNL1        0.1453
@<TRIPOS>BOND
     1    12    13    1
     2    13    14   ar
     3    14    15   ar
     4    15    16   ar
     5    16    17    1
     6    16    18   ar
     7    18    19   ar
     8    19     9    1
     9     9    10    1
    10     9    11    1
    11     9     8    1
    12     8     1    1
    13     1     2    1
    14     1    20    1
    15    20    21    1
    16    21    22    2
    17    22    23    1
    18    23    24    2
    19    24    25    1
    20    25    30    1
    21    30    31   am
    22    30    32    2
    23    25    26    2
    24    26    27    1
    25    27    28    1
    26    28    29    2
    27     1     4    1
    28     4     5    1
    29     4     6    1
    30     4     7    1
    31    19    13   ar
    32    29    21    1
    33    28    23    1
    34     2     3    1
    35    31    33    1
    36    31    34    1
@<TRIPOS>MOLECULE
*****
 34 36 0 0 0
SMALL
GASTEIGER

@<TRIPOS>ATOM
      1 C          63.6379   87.0051   15.8665 C.3     1  UNL1        0.1812
      2 O          64.1701   87.1869   14.4760 O.3     1  UNL1       -0.3784
      3 H          64.4550   86.3291   14.1241 H       1  UNL1        0.2106
      4 C          63.1058   86.8233   17.2571 C.3     1  UNL1        0.4197
      5 F          62.5736   86.6415   18.6477 F       1  UNL1       -0.1676
      6 F          63.9028   85.5602   17.3970 F       1  UNL1       -0.1676
      7 F          62.3088   88.0863   17.1173 F       1  UNL1       -0.1676
      8 C          63.9171   85.5337   15.7810 C.3     1  UNL1        0.0398
      9 C          63.7526   84.8138   14.4754 C.3     1  UNL1        0.0212
     10 C          62.2645   84.8119   14.6640 C.3     1  UNL1        0.0044
     11 C          65.2407   84.8157   14.2868 C.3     1  UNL1        0.0044
     12 C          63.6125   81.8175   14.4220 C.3     1  UNL1        0.0307
     13 C          63.5180   82.5958   13.1431 C.ar    1  UNL1       -0.0257
     14 C          63.3535   81.8758   11.8375 C.ar    1  UNL1       -0.0023
     15 C          63.2590   82.6539   10.5586 C.ar    1  UNL1        0.0293
     16 C          63.3290   84.1521   10.5853 C.ar    1  UNL1        0.1398
     17 F          63.2345   84.9303    9.3065 F       1  UNL1       -0.2042
     18 C          63.4935   84.8721   11.8909 C.ar    1  UNL1        0.0250
     19 C          63.5880   84.0938   13.1698 C.ar    1  UNL1       -0.0244
     20 C          63.3587   88.4764   15.9521 C.3     1  UNL1        0.0811
     21 C          63.6798   89.3694   14.7905 C.2     1  UNL1        0.0613
     22 C          64.7952   90.3706   14.7299 C.2     1  UNL1        0.0160
     23 C          64.7466   91.0381   13.3874 C.2     1  UNL1        0.0183
     24 C          65.5973   92.1058   12.7660 C.2     1  UNL1        0.0246
     25 C          65.3026   92.5849   11.3754 C.2     1  UNL1        0.1294
     26 N          64.1572   91.9963   10.6063 N.2     1  UNL1       -0.2594
     27 C          63.3065   90.9285   11.2278 C.3     1  UNL1        0.1709
     28 C          63.6011   90.4494   12.6183 C.2     1  UNL1        0.0832
     29 N          62.9418   89.4181   13.4854 N.2     1  UNL1       -0.2519
     30 C          66.1534   93.6526   10.7540 C.2     1  UNL1        0.2601
     31 N          67.5477   93.3327   10.3028 N.am    1  UNL1       -0.3241
     32 O          65.6098   95.0402   10.5837 O.2     1  UNL1       -0.2687
     33 H          67.9045   92.4219   10.4146 H       1  UNL1        0.1453
     34 H          68.1061   94.0334    9.8949 H       1  UNL1        0.1453
@<TRIPOS>BOND
     1    12    13    1
     2    13    14   ar
     3    14    15   ar
     4    15    16   ar
     5    16    17    1
     6    16    18   ar
     7    18    19   ar
     8    19     9    1
     9     9    10    1
    10     9    11    1
    11     9     8    1
    12     8     1    1
    13     1     2    1
    14     1    20    1
    15    20    21    1
    16    21    22    2
    17    22    23    1
    18    23    24    2
    19    24    25    1
    20    25    30    1
    21    30    31   am
    22    30    32    2
    23    25    26    2
    24    26    27    1
    25    27    28    1
    26    28    29    2
    27     1     4    1
    28     4     5    1
    29     4     6    1
    30     4     7    1
    31    19    13   ar
    32    29    21    1
    33    28    23    1
    34     2     3    1
    35    31    33    1
    36    31    34    1
@<TRIPOS>MOLECULE
*****
 34 36 0 0 0
SMALL
GASTEIGER

@<TRIPOS>ATOM
      1 C          61.4584   87.2031    9.5866 C.3     1  UNL1        0.1812
      2 O          62.8107   87.3861   10.2095 O.3     1  UNL1       -0.3784
      3 H          63.2493   86.5246   10.2890 H       1  UNL1        0.2106
      4 C          60.1062   87.0201    8.9638 C.3     1  UNL1        0.4197
      5 F          58.7539   86.8371    8.3409 F       1  UNL1       -0.1676
      6 F          59.4727   87.7069   10.1373 F       1  UNL1       -0.1676
      7 F          60.7397   86.3333    7.7904 F       1  UNL1       -0.1676
      8 C          61.6997   85.7253    9.4969 C.3     1  UNL1        0.0398
      9 C          62.4207   85.0146   10.6037 C.3     1  UNL1        0.0212
     10 C          63.4018   84.4644    9.6112 C.3     1  UNL1        0.0044
     11 C          61.4397   85.5647   11.5961 C.3     1  UNL1        0.0044
     12 C          62.9623   82.0713   10.3937 C.3     1  UNL1        0.0307
     13 C          63.4126   82.8322   11.6055 C.ar    1  UNL1       -0.0257
     14 C          64.1336   82.1215   12.7122 C.ar    1  UNL1       -0.0023
     15 C          64.5839   82.8823   13.9239 C.ar    1  UNL1        0.0293
     16 C          64.3131   84.3540   14.0290 C.ar    1  UNL1        0.1398
     17 F          64.7634   85.1148   15.2407 F       1  UNL1       -0.2042
     18 C          63.5921   85.0647   12.9222 C.ar    1  UNL1        0.0250
     19 C          63.1418   84.3038   11.7104 C.ar    1  UNL1       -0.0244
     20 C          61.2171   88.6808    9.6763 C.3     1  UNL1        0.0811
     21 C          62.1269   89.5404   10.5030 C.2     1  UNL1        0.0613
     22 C          63.0436   90.6082    9.9836 C.2     1  UNL1        0.0160
     23 C          63.7630   91.2110   11.1537 C.2     1  UNL1        0.0183
     24 C          64.7869   92.3031   11.2483 C.2     1  UNL1        0.0246
     25 C          65.3388   92.6999   12.5855 C.2     1  UNL1        0.1294
     26 N          64.8668   92.0047   13.8280 N.2     1  UNL1       -0.2594
     27 C          63.8429   90.9126   13.7334 C.3     1  UNL1        0.1709
     28 C          63.2910   90.5157   12.3963 C.2     1  UNL1        0.0832
     29 N          62.2798   89.4833   11.9941 N.2     1  UNL1       -0.2519
     30 C          66.3627   93.7920   12.6801 C.2     1  UNL1        0.2601
     31 N          66.9052   94.1976   14.0185 N.am    1  UNL1       -0.3241
     32 O          66.8441   94.4785   11.4364 O.2     1  UNL1       -0.2687
     33 H          66.5892   93.7470   14.8349 H       1  UNL1        0.1453
     34 H          67.5772   94.9143   14.0807 H       1  UNL1        0.1453
@<TRIPOS>BOND
     1    12    13    1
     2    13    14   ar
     3    14    15   ar
     4    15    16   ar
     5    16    17    1
     6    16    18   ar
     7    18    19   ar
     8    19     9    1
     9     9    10    1
    10     9    11    1
    11     9     8    1
    12     8     1    1
    13     1     2    1
    14     1    20    1
    15    20    21    1
    16    21    22    2
    17    22    23    1
    18    23    24    2
    19    24    25    1
    20    25    30    1
    21    30    31   am
    22    30    32    2
    23    25    26    2
    24    26    27    1
    25    27    28    1
    26    28    29    2
    27     1     4    1
    28     4     5    1
    29     4     6    1
    30     4     7    1
    31    19    13   ar
    32    29    21    1
    33    28    23    1
    34     2     3    1
    35    31    33    1
    36    31    34    1
@<TRIPOS>MOLECULE
*****
 34 36 0 0 0
SMALL
GASTEIGER

@<TRIPOS>ATOM
      1 C          61.6118   87.7060    9.5946 C.3     1  UNL1        0.1812
      2 O          63.0294   87.8141   10.0728 O.3     1  UNL1       -0.3784
      3 H          63.4689   86.9546    9.9782 H       1  UNL1        0.2106
      4 C          60.1942   87.5980    9.1164 C.3     1  UNL1        0.4197
      5 F          58.7766   87.4898    8.6381 F       1  UNL1       -0.1676
      6 F          59.7355   88.4073   10.2931 F       1  UNL1       -0.1676
      7 F          60.6529   86.7886    7.9397 F       1  UNL1       -0.1676
      8 C          61.8315   86.2580    9.2704 C.3     1  UNL1        0.0398
      9 C          62.3024   85.3139   10.3366 C.3     1  UNL1        0.0212
     10 C          63.2685   84.7005    9.3668 C.3     1  UNL1        0.0044
     11 C          61.3364   85.9272   11.3064 C.3     1  UNL1        0.0044
     12 C          63.5232   86.3871   12.8581 C.3     1  UNL1        0.0307
     13 C          63.3837   84.9063   12.6636 C.ar    1  UNL1       -0.0257
     14 C          63.8546   83.9621   13.7298 C.ar    1  UNL1       -0.0023
     15 C          63.7152   82.4814   13.5353 C.ar    1  UNL1        0.0293
     16 C          63.1048   81.9447   12.2745 C.ar    1  UNL1        0.1398
     17 F          62.9653   80.4640   12.0800 F       1  UNL1       -0.2042
     18 C          62.6339   82.8889   11.2083 C.ar    1  UNL1        0.0250
     19 C          62.7733   84.3697   11.4028 C.ar    1  UNL1       -0.0244
     20 C          61.3920   89.1540    9.9187 C.3     1  UNL1        0.0811
     21 C          62.4081   89.9039   10.7281 C.2     1  UNL1        0.0613
     22 C          62.7385   89.6623   12.1713 C.2     1  UNL1        0.0160
     23 C          63.8068   90.6362   12.5716 C.2     1  UNL1        0.0183
     24 C          64.5218   90.8639   13.8704 C.2     1  UNL1        0.0246
     25 C          65.5668   91.9351   13.9735 C.2     1  UNL1        0.1294
     26 N          65.8967   92.7786   12.7779 N.2     1  UNL1       -0.2594
     27 C          65.1817   92.5509   11.4791 C.3     1  UNL1        0.1709
     28 C          64.1368   91.4797   11.3759 C.2     1  UNL1        0.0832
     29 N          63.2723   91.0271   10.2366 N.2     1  UNL1       -0.2519
     30 C          66.2817   92.1628   15.2724 C.2     1  UNL1        0.2601
     31 N          65.5653   92.8125   16.4190 N.am    1  UNL1       -0.3241
     32 O          67.7131   91.7409   15.4246 O.2     1  UNL1       -0.2687
     33 H          64.6259   93.0895   16.3191 H       1  UNL1        0.1453
     34 H          66.0346   92.9620   17.2715 H       1  UNL1        0.1453
@<TRIPOS>BOND
     1    12    13    1
     2    13    14   ar
     3    14    15   ar
     4    15    16   ar
     5    16    17    1
     6    16    18   ar
     7    18    19   ar
     8    19     9    1
     9     9    10    1
    10     9    11    1
    11     9     8    1
    12     8     1    1
    13     1     2    1
    14     1    20    1
    15    20    21    1
    16    21    22    2
    17    22    23    1
    18    23    24    2
    19    24    25    1
    20    25    30    1
    21    30    31   am
    22    30    32    2
    23    25    26    2
    24    26    27    1
    25    27    28    1
    26    28    29    2
    27     1     4    1
    28     4     5    1
    29     4     6    1
    30     4     7    1
    31    19    13   ar
    32    29    21    1
    33    28    23    1
    34     2     3    1
    35    31    33    1
    36    31    34    1
@<TRIPOS>MOLECULE
*****
 34 36 0 0 0
SMALL
GASTEIGER

@<TRIPOS>ATOM
      1 C          64.0656   82.8115   13.5513 C.3     1  UNL1        0.1812
      2 O          65.0631   83.8401   13.1076 O.3     1  UNL1       -0.3784
      3 H          65.1863   83.7780   12.1475 H       1  UNL1        0.2106
      4 C          63.0681   81.7829   13.9950 C.3     1  UNL1        0.4197
      5 F          62.0705   80.7543   14.4388 F       1  UNL1       -0.1676
      6 F          63.8605   80.7150   13.3008 F       1  UNL1       -0.1676
      7 F          62.2758   82.8507   14.6892 F       1  UNL1       -0.1676
      8 C          63.9150   82.3459   12.1333 C.3     1  UNL1        0.0398
      9 C          63.4479   83.3016   11.0758 C.3     1  UNL1        0.0212
     10 C          64.7178   83.0752   10.3103 C.3     1  UNL1        0.0044
     11 C          62.1779   83.5280   11.8413 C.3     1  UNL1        0.0044
     12 C          62.2415   85.9340   11.8599 C.3     1  UNL1        0.0307
     13 C          62.3776   85.5735   10.4102 C.ar    1  UNL1       -0.0257
     14 C          61.9104   86.5292    9.3527 C.ar    1  UNL1       -0.0023
     15 C          62.0465   86.1686    7.9030 C.ar    1  UNL1        0.0293
     16 C          62.6497   84.8524    7.5109 C.ar    1  UNL1        0.1398
     17 F          62.7858   84.4919    6.0613 F       1  UNL1       -0.2042
     18 C          63.1168   83.8967    8.5685 C.ar    1  UNL1        0.0250
     19 C          62.9807   84.2573   10.0182 C.ar    1  UNL1       -0.0244
     20 C          64.2163   83.2771   14.9692 C.3     1  UNL1        0.0811
     21 C          64.0402   84.7284   15.3047 C.2     1  UNL1        0.0613
     22 C          64.5318   85.8878   14.4896 C.2     1  UNL1        0.0160
     23 C          64.1370   87.1511   15.1954 C.2     1  UNL1        0.0183
     24 C          64.3523   88.5973   14.8603 C.2     1  UNL1        0.0246
     25 C          63.8320   89.6650   15.7766 C.2     1  UNL1        0.1294
     26 N          63.0965   89.2865   17.0278 N.2     1  UNL1       -0.2594
     27 C          62.8812   87.8403   17.3629 C.3     1  UNL1        0.1709
     28 C          63.4015   86.7727   16.4467 C.2     1  UNL1        0.0832
     29 N          63.3416   85.2753   16.5143 N.2     1  UNL1       -0.2519
     30 C          64.0473   91.1111   15.4415 C.2     1  UNL1        0.2601
     31 N          64.6477   91.4937   14.1211 N.am    1  UNL1       -0.3241
     32 O          63.6623   92.1746   16.4266 O.2     1  UNL1       -0.2687
     33 H          64.9005   90.7957   13.4745 H       1  UNL1        0.1453
     34 H          64.7890   92.4429   13.9012 H       1  UNL1        0.1453
@<TRIPOS>BOND
     1    12    13    1
     2    13    14   ar
     3    14    15   ar
     4    15    16   ar
     5    16    17    1
     6    16    18   ar
     7    18    19   ar
     8    19     9    1
     9     9    10    1
    10     9    11    1
    11     9     8    1
    12     8     1    1
    13     1     2    1
    14     1    20    1
    15    20    21    1
    16    21    22    2
    17    22    23    1
    18    23    24    2
    19    24    25    1
    20    25    30    1
    21    30    31   am
    22    30    32    2
    23    25    26    2
    24    26    27    1
    25    27    28    1
    26    28    29    2
    27     1     4    1
    28     4     5    1
    29     4     6    1
    30     4     7    1
    31    19    13   ar
    32    29    21    1
    33    28    23    1
    34     2     3    1
    35    31    33    1
    36    31    34    1
@<TRIPOS>MOLECULE
*****
 34 36 0 0 0
SMALL
GASTEIGER

@<TRIPOS>ATOM
      1 C          63.0011   90.1270   12.4700 C.3     1  UNL1        0.1812
      2 O          61.9133   89.1465   12.7942 O.3     1  UNL1       -0.3784
      3 H          61.1434   89.3194   12.2301 H       1  UNL1        0.2106
      4 C          64.0889   91.1075   12.1458 C.3     1  UNL1        0.4197
      5 F          65.1769   92.0880   11.8216 F       1  UNL1       -0.1676
      6 F          63.2168   91.7275   11.0946 F       1  UNL1       -0.1676
      7 F          64.9611   90.4875   13.1970 F       1  UNL1       -0.1676
      8 C          62.1230   90.7574   11.4300 C.3     1  UNL1        0.0398
      9 C          61.3720   89.8948   10.4595 C.3     1  UNL1        0.0212
     10 C          62.6677   89.3226    9.9655 C.3     1  UNL1        0.0044
     11 C          60.0764   90.4669   10.9534 C.3     1  UNL1        0.0044
     12 C          60.8992   86.9983   11.0815 C.3     1  UNL1        0.0307
     13 C          60.3846   87.5839    9.7999 C.ar    1  UNL1       -0.0257
     14 C          59.6337   86.7213    8.8294 C.ar    1  UNL1       -0.0023
     15 C          59.1191   87.3069    7.5479 C.ar    1  UNL1        0.0293
     16 C          59.3556   88.7552    7.2368 C.ar    1  UNL1        0.1398
     17 F          58.8410   89.3408    5.9553 F       1  UNL1       -0.2042
     18 C          60.1065   89.6178    8.2074 C.ar    1  UNL1        0.0250
     19 C          60.6211   89.0321    9.4889 C.ar    1  UNL1       -0.0244
     20 C          63.8792   89.4966   13.5100 C.3     1  UNL1        0.0811
     21 C          63.8250   88.0153   13.7396 C.2     1  UNL1        0.0613
     22 C          63.5181   86.9734   12.7050 C.2     1  UNL1        0.0160
     23 C          63.5716   85.6299   13.3701 C.2     1  UNL1        0.0183
     24 C          63.3547   84.2412   12.8462 C.2     1  UNL1        0.0246
     25 C          63.4776   83.0642   13.7679 C.2     1  UNL1        0.1294
     26 N          63.8175   83.2758   15.2134 N.2     1  UNL1       -0.2594
     27 C          64.0344   84.6645   15.7374 C.3     1  UNL1        0.1709
     28 C          63.9114   85.8415   14.8158 C.2     1  UNL1        0.0832
     29 N          64.0680   87.3158   15.0441 N.2     1  UNL1       -0.2519
     30 C          63.2607   81.6755   13.2439 C.2     1  UNL1        0.2601
     31 N          63.0605   81.4511   11.7743 N.am    1  UNL1       -0.3241
     32 O          63.2440   80.5112   14.1895 O.2     1  UNL1       -0.2687
     33 H          63.0715   82.2153   11.1537 H       1  UNL1        0.1453
     34 H          62.9181   80.5397   11.4304 H       1  UNL1        0.1453
@<TRIPOS>BOND
     1    12    13    1
     2    13    14   ar
     3    14    15   ar
     4    15    16   ar
     5    16    17    1
     6    16    18   ar
     7    18    19   ar
     8    19     9    1
     9     9    10    1
    10     9    11    1
    11     9     8    1
    12     8     1    1
    13     1     2    1
    14     1    20    1
    15    20    21    1
    16    21    22    2
    17    22    23    1
    18    23    24    2
    19    24    25    1
    20    25    30    1
    21    30    31   am
    22    30    32    2
    23    25    26    2
    24    26    27    1
    25    27    28    1
    26    28    29    2
    27     1     4    1
    28     4     5    1
    29     4     6    1
    30     4     7    1
    31    19    13   ar
    32    29    21    1
    33    28    23    1
    34     2     3    1
    35    31    33    1
    36    31    34    1
@<TRIPOS>MOLECULE
*****
 34 36 0 0 0
SMALL
GASTEIGER

@<TRIPOS>ATOM
      1 C          62.0476   88.1402   11.2560 C.3     1  UNL1        0.1812
      2 O          63.2894   87.9413   12.0735 O.3     1  UNL1       -0.3784
      3 H          63.6806   87.0790   11.8627 H       1  UNL1        0.2106
      4 C          60.8059   88.3392   10.4384 C.3     1  UNL1        0.4197
      5 F          59.5641   88.5382    9.6208 F       1  UNL1       -0.1676
      6 F          59.9646   88.0167   11.6378 F       1  UNL1       -0.1676
      7 F          61.6471   88.6616    9.2392 F       1  UNL1       -0.1676
      8 C          62.2502   86.7963   10.6211 C.3     1  UNL1        0.0398
      9 C          62.5845   85.6074   11.4725 C.3     1  UNL1        0.0212
     10 C          63.3047   86.5013   12.4380 C.3     1  UNL1        0.0044
     11 C          61.8643   84.7135   10.5070 C.3     1  UNL1        0.0044
     12 C          64.2041   83.3541   10.3326 C.3     1  UNL1        0.0307
     13 C          63.7286   83.2919   11.7540 C.ar    1  UNL1       -0.0257
     14 C          64.0629   82.1030   12.6053 C.ar    1  UNL1       -0.0023
     15 C          63.5874   82.0408   14.0266 C.ar    1  UNL1        0.0293
     16 C          62.7776   83.1675   14.5965 C.ar    1  UNL1        0.1398
     17 F          62.3021   83.1053   16.0178 F       1  UNL1       -0.2042
     18 C          62.4433   84.3564   13.7452 C.ar    1  UNL1        0.0250
     19 C          62.9188   84.4186   12.3239 C.ar    1  UNL1       -0.0244
     20 C          61.8450   89.4841   11.8907 C.3     1  UNL1        0.0811
     21 C          62.9432   90.5050   11.8519 C.2     1  UNL1        0.0613
     22 C          63.3939   91.2697   10.6427 C.2     1  UNL1        0.0160
     23 C          64.5128   92.1779   11.0589 C.2     1  UNL1        0.0183
     24 C          65.3434   93.1638   10.2920 C.2     1  UNL1        0.0246
     25 C          66.4150   93.9463   10.9917 C.2     1  UNL1        0.1294
     26 N          66.6558   93.7430   12.4582 N.2     1  UNL1       -0.2594
     27 C          65.8252   92.7571   13.2251 C.3     1  UNL1        0.1709
     28 C          64.7537   91.9746   12.5255 C.2     1  UNL1        0.0832
     29 N          63.7836   90.9407   13.0156 N.2     1  UNL1       -0.2519
     30 C          67.2456   94.9322   10.2248 C.2     1  UNL1        0.2601
     31 N          66.8633   96.3826   10.2084 N.am    1  UNL1       -0.3241
     32 O          68.4585   94.4677    9.4744 O.2     1  UNL1       -0.2687
     33 H          66.0673   96.6875   10.7009 H       1  UNL1        0.1453
     34 H          67.4085   97.0297    9.7051 H       1  UNL1        0.1453
@<TRIPOS>BOND
     1    12    13    1
     2    13    14   ar
     3    14    15   ar
     4    15    16   ar
     5    16    17    1
     6    16    18   ar
     7    18    19   ar
     8    19     9    1
     9     9    10    1
    10     9    11    1
    11     9     8    1
    12     8     1    1
    13     1     2    1
    14     1    20    1
    15    20    21    1
    16    21    22    2
    17    22    23    1
    18    23    24    2
    19    24    25    1
    20    25    30    1
    21    30    31   am
    22    30    32    2
    23    25    26    2
    24    26    27    1
    25    27    28    1
    26    28    29    2
    27     1     4    1
    28     4     5    1
    29     4     6    1
    30     4     7    1
    31    19    13   ar
    32    29    21    1
    33    28    23    1
    34     2     3    1
    35    31    33    1
    36    31    34    1
