@<TRIPOS>MOLECULE
*****
 28 31 0 0 0
SMALL
GASTEIGER

@<TRIPOS>ATOM
      1 C          62.3111   86.6538   10.8071 C.3     1  UNL1        0.1549
      2 C          61.9698   86.0961    9.4570 C.ar    1  UNL1        0.0028
      3 C          60.5995   86.3052    8.8838 C.ar    1  UNL1       -0.0023
      4 C          60.2581   85.7476    7.5338 C.ar    1  UNL1       -0.0003
      5 C          61.2871   84.9810    6.7571 C.ar    1  UNL1       -0.0000
      6 C          62.6574   84.7719    7.3302 C.ar    1  UNL1       -0.0003
      7 C          62.9988   85.3295    8.6803 C.ar    1  UNL1       -0.0023
      8 N          63.3311   85.9670   11.6662 N.pl3   1  UNL1       -0.3234
      9 H          64.2669   86.2727   11.6591 H       1  UNL1        0.1475
     10 C          62.4691   82.2745   12.8378 C.ar    1  UNL1        0.1590
     11 C          62.1137   82.5092   14.2760 C.ar    1  UNL1        0.1357
     12 N          62.1641   83.8965   14.8443 N.ar    1  UNL1       -0.2379
     13 C          62.5699   85.0491   13.9743 C.ar    1  UNL1        0.1133
     14 C          62.9253   84.8144   12.5361 C.ar    1  UNL1        0.0676
     15 C          62.8749   83.4271   11.9678 C.ar    1  UNL1        0.0544
     16 C          62.4091   79.7008   13.1870 C.3     1  UNL1        0.2525
     17 O          62.4186   80.8873   12.2695 O.3     1  UNL1       -0.4698
     18 C          61.6325   87.8982   11.2980 C.2     1  UNL1        0.1964
     19 O          60.2334   87.8277   11.8340 O.2     1  UNL1       -0.2892
     20 C          62.3531   89.2130   11.2529 C.2     1  UNL1        0.0569
     21 C          62.2443   90.2412   10.1662 C.2     1  UNL1        0.1014
     22 N          63.1330   91.3941   10.5282 N.2     1  UNL1       -0.2477
     23 C          63.7911   91.0784   11.8387 C.2     1  UNL1        0.0635
     24 C          64.7669   91.8442   12.6820 C.3     1  UNL1        0.0717
     25 C          65.2608   91.2620   13.9732 C.2     1  UNL1       -0.0198
     26 C          64.7788   89.9140   14.4210 C.2     1  UNL1       -0.0041
     27 C          63.8029   89.1482   13.5777 C.2     1  UNL1        0.0010
     28 C          63.3091   89.7304   12.2865 C.2     1  UNL1        0.0182
@<TRIPOS>BOND
     1    16    17    1
     2    17    10    1
     3    10    11   ar
     4    11    12   ar
     5    12    13   ar
     6    13    14   ar
     7    14     8    1
     8     8     1    1
     9     1    18    1
    10    18    19    2
    11    18    20    1
    12    20    21    2
    13    21    22    1
    14    22    23    2
    15    23    24    1
    16    24    25    1
    17    25    26    2
    18    26    27    1
    19    27    28    2
    20     1     2    1
    21     2     3   ar
    22     3     4   ar
    23     4     5   ar
    24     5     6   ar
    25     6     7   ar
    26    14    15   ar
    27    15    10   ar
    28    28    20    1
    29     7     2   ar
    30    28    23    1
    31     8     9    1
@<TRIPOS>MOLECULE
*****
 28 31 0 0 0
SMALL
GASTEIGER

@<TRIPOS>ATOM
      1 C          62.3116   86.5422   10.6968 C.3     1  UNL1        0.1549
      2 C          61.9495   86.0230    9.3368 C.ar    1  UNL1        0.0028
      3 C          62.9671   85.2814    8.5217 C.ar    1  UNL1       -0.0023
      4 C          62.6050   84.7623    7.1618 C.ar    1  UNL1       -0.0003
      5 C          61.2253   84.9847    6.6171 C.ar    1  UNL1       -0.0000
      6 C          60.2076   85.7262    7.4322 C.ar    1  UNL1       -0.0003
      7 C          60.5697   86.2454    8.7922 C.ar    1  UNL1       -0.0023
      8 N          63.3549   85.8400   11.5143 N.pl3   1  UNL1       -0.3234
      9 H          64.3026   86.0903   11.4229 H       1  UNL1        0.1475
     10 C          62.4257   83.9744   14.8916 C.ar    1  UNL1        0.1590
     11 C          62.1529   82.5893   14.3845 C.ar    1  UNL1        0.1357
     12 N          62.2808   82.2878   12.9207 N.ar    1  UNL1       -0.2379
     13 C          62.6814   83.3714   11.9640 C.ar    1  UNL1        0.1133
     14 C          62.9542   84.7565   12.4711 C.ar    1  UNL1        0.0676
     15 C          62.8264   85.0580   13.9349 C.ar    1  UNL1        0.0544
     16 C          62.5813   85.6583   16.8640 C.3     1  UNL1        0.2525
     17 O          62.2979   84.2759   16.3554 O.3     1  UNL1       -0.4698
     18 C          61.6303   87.7636   11.2391 C.2     1  UNL1        0.1964
     19 O          60.2525   87.6572   11.8223 O.2     1  UNL1       -0.2892
     20 C          62.3270   89.0914   11.1982 C.2     1  UNL1        0.0569
     21 C          62.2095   90.1156   10.1086 C.2     1  UNL1        0.1014
     22 N          63.0733   91.2852   10.4768 N.2     1  UNL1       -0.2477
     23 C          63.7248   90.9840   11.7940 C.2     1  UNL1        0.0635
     24 C          64.6784   91.7691   12.6449 C.3     1  UNL1        0.0717
     25 C          65.1707   91.1984   13.9417 C.2     1  UNL1       -0.0198
     26 C          64.7094   89.8425   14.3876 C.2     1  UNL1       -0.0041
     27 C          63.7558   89.0574   13.5367 C.2     1  UNL1        0.0010
     28 C          63.2635   89.6281   12.2398 C.2     1  UNL1        0.0182
@<TRIPOS>BOND
     1    16    17    1
     2    17    10    1
     3    10    11   ar
     4    11    12   ar
     5    12    13   ar
     6    13    14   ar
     7    14     8    1
     8     8     1    1
     9     1    18    1
    10    18    19    2
    11    18    20    1
    12    20    21    2
    13    21    22    1
    14    22    23    2
    15    23    24    1
    16    24    25    1
    17    25    26    2
    18    26    27    1
    19    27    28    2
    20     1     2    1
    21     2     3   ar
    22     3     4   ar
    23     4     5   ar
    24     5     6   ar
    25     6     7   ar
    26    14    15   ar
    27    15    10   ar
    28    28    20    1
    29     7     2   ar
    30    28    23    1
    31     8     9    1
@<TRIPOS>MOLECULE
*****
 28 31 0 0 0
SMALL
GASTEIGER

@<TRIPOS>ATOM
      1 C          62.1112   86.4173   11.0942 C.3     1  UNL1        0.1549
      2 C          61.8636   86.0184    9.6695 C.ar    1  UNL1        0.0028
      3 C          60.4981   86.1834    9.0710 C.ar    1  UNL1       -0.0023
      4 C          60.2505   85.7844    7.6464 C.ar    1  UNL1       -0.0003
      5 C          61.3683   85.2205    6.8204 C.ar    1  UNL1       -0.0000
      6 C          62.7338   85.0555    7.4189 C.ar    1  UNL1       -0.0003
      7 C          62.9814   85.4544    8.8436 C.ar    1  UNL1       -0.0023
      8 N          61.5291   87.6926   11.6279 N.pl3   1  UNL1       -0.3234
      9 H          60.6424   87.6878   12.0555 H       1  UNL1        0.1475
     10 C          63.6869   90.8750   12.6107 C.ar    1  UNL1        0.1590
     11 C          63.8360   91.5400   11.2745 C.ar    1  UNL1        0.1357
     12 N          63.2161   90.9226   10.0561 N.ar    1  UNL1       -0.2379
     13 C          62.4472   89.6401   10.1739 C.ar    1  UNL1        0.1133
     14 C          62.2981   88.9751   11.5102 C.ar    1  UNL1        0.0676
     15 C          62.9180   89.5925   12.7285 C.ar    1  UNL1        0.0544
     16 C          65.7436   91.2176   14.1608 C.3     1  UNL1        0.2525
     17 O          64.3068   91.4924   13.8291 O.3     1  UNL1       -0.4698
     18 C          62.9409   85.5409   11.9851 C.2     1  UNL1        0.1964
     19 O          63.5660   86.1092   13.2245 O.2     1  UNL1       -0.2892
     20 C          63.1455   84.0964   11.6364 C.2     1  UNL1        0.0569
     21 C          63.8412   83.5744   10.4143 C.2     1  UNL1        0.1014
     22 N          63.8159   82.0757   10.4713 N.2     1  UNL1       -0.2477
     23 C          63.1046   81.6715   11.7286 C.2     1  UNL1        0.0635
     24 C          62.7806   80.3276   12.3108 C.3     1  UNL1        0.0717
     25 C          62.0424   80.2326   13.6130 C.2     1  UNL1       -0.0198
     26 C          61.6280   81.4816   14.3331 C.2     1  UNL1       -0.0041
     27 C          61.9520   82.8255   13.7509 C.2     1  UNL1        0.0010
     28 C          62.6902   82.9204   12.4487 C.2     1  UNL1        0.0182
@<TRIPOS>BOND
     1    16    17    1
     2    17    10    1
     3    10    11   ar
     4    11    12   ar
     5    12    13   ar
     6    13    14   ar
     7    14     8    1
     8     8     1    1
     9     1    18    1
    10    18    19    2
    11    18    20    1
    12    20    21    2
    13    21    22    1
    14    22    23    2
    15    23    24    1
    16    24    25    1
    17    25    26    2
    18    26    27    1
    19    27    28    2
    20     1     2    1
    21     2     3   ar
    22     3     4   ar
    23     4     5   ar
    24     5     6   ar
    25     6     7   ar
    26    14    15   ar
    27    15    10   ar
    28    28    20    1
    29     7     2   ar
    30    28    23    1
    31     8     9    1
@<TRIPOS>MOLECULE
*****
 28 31 0 0 0
SMALL
GASTEIGER

@<TRIPOS>ATOM
      1 C          62.2007   87.2362   11.8830 C.3     1  UNL1        0.1549
      2 C          62.7364   88.6239   11.6900 C.ar    1  UNL1        0.0028
      3 C          62.6153   89.2955   10.3542 C.ar    1  UNL1       -0.0023
      4 C          63.1510   90.6832   10.1611 C.ar    1  UNL1       -0.0003
      5 C          63.8077   91.3993   11.3039 C.ar    1  UNL1       -0.0000
      6 C          63.9288   90.7277   12.6397 C.ar    1  UNL1       -0.0003
      7 C          63.3931   89.3400   12.8327 C.ar    1  UNL1       -0.0023
      8 N          60.7969   86.9095   11.4675 N.pl3   1  UNL1       -0.3234
      9 H          60.1396   86.6186   12.1402 H       1  UNL1        0.1475
     10 C          60.3191   86.0393    7.6251 C.ar    1  UNL1        0.1590
     11 C          59.5900   87.2597    7.1466 C.ar    1  UNL1        0.1357
     12 N          59.2632   88.3634    8.1084 N.ar    1  UNL1       -0.2379
     13 C          59.6655   88.2466    9.5487 C.ar    1  UNL1        0.1133
     14 C          60.3947   87.0262   10.0272 C.ar    1  UNL1        0.0676
     15 C          60.7214   85.9225    9.0654 C.ar    1  UNL1        0.0544
     16 C          62.0770   84.6056    6.3585 C.3     1  UNL1        0.2525
     17 O          60.6459   84.9356    6.6633 O.3     1  UNL1       -0.4698
     18 C          63.0690   86.1750   12.4916 C.2     1  UNL1        0.1964
     19 O          63.8673   86.4756   13.7253 O.2     1  UNL1       -0.2892
     20 C          63.1387   84.8133   11.8664 C.2     1  UNL1        0.0569
     21 C          63.5371   84.5119   10.4520 C.2     1  UNL1        0.1014
     22 N          63.4669   83.0262   10.2573 N.2     1  UNL1       -0.2477
     23 C          63.0251   82.4095   11.5513 C.2     1  UNL1        0.0635
     24 C          62.7813   80.9849   11.9525 C.3     1  UNL1        0.0717
     25 C          62.3346   80.6648   13.3482 C.2     1  UNL1       -0.0198
     26 C          62.1318   81.7692   14.3427 C.2     1  UNL1       -0.0041
     27 C          62.3756   83.1938   13.9414 C.2     1  UNL1        0.0010
     28 C          62.8222   83.5140   12.5458 C.2     1  UNL1        0.0182
@<TRIPOS>BOND
     1    16    17    1
     2    17    10    1
     3    10    11   ar
     4    11    12   ar
     5    12    13   ar
     6    13    14   ar
     7    14     8    1
     8     8     1    1
     9     1    18    1
    10    18    19    2
    11    18    20    1
    12    20    21    2
    13    21    22    1
    14    22    23    2
    15    23    24    1
    16    24    25    1
    17    25    26    2
    18    26    27    1
    19    27    28    2
    20     1     2    1
    21     2     3   ar
    22     3     4   ar
    23     4     5   ar
    24     5     6   ar
    25     6     7   ar
    26    14    15   ar
    27    15    10   ar
    28    28    20    1
    29     7     2   ar
    30    28    23    1
    31     8     9    1
@<TRIPOS>MOLECULE
*****
 28 31 0 0 0
SMALL
GASTEIGER

@<TRIPOS>ATOM
      1 C          62.1690   87.5915   10.9374 C.3     1  UNL1        0.1549
      2 C          61.3340   87.1107    9.7878 C.ar    1  UNL1        0.0028
      3 C          61.8947   86.1111    8.8201 C.ar    1  UNL1       -0.0023
      4 C          61.0598   85.6302    7.6704 C.ar    1  UNL1       -0.0003
      5 C          59.6642   86.1490    7.4886 C.ar    1  UNL1       -0.0000
      6 C          59.1035   87.1486    8.4562 C.ar    1  UNL1       -0.0003
      7 C          59.9384   87.6295    9.6059 C.ar    1  UNL1       -0.0023
      8 N          63.3100   86.7557   11.4369 N.pl3   1  UNL1       -0.3234
      9 H          64.1298   86.6699   10.8987 H       1  UNL1        0.1475
     10 C          62.4654   83.9859   14.1506 C.ar    1  UNL1        0.1590
     11 C          62.9858   84.6408   15.3957 C.ar    1  UNL1        0.1357
     12 N          63.6143   86.0008   15.3211 N.ar    1  UNL1       -0.2379
     13 C          63.7223   86.7057   14.0015 C.ar    1  UNL1        0.1133
     14 C          63.2019   86.0507   12.7565 C.ar    1  UNL1        0.0676
     15 C          62.5734   84.6908   12.8310 C.ar    1  UNL1        0.0544
     16 C          62.3181   81.5269   13.3249 C.3     1  UNL1        0.2525
     17 O          61.8369   82.6259   14.2252 O.3     1  UNL1       -0.4698
     18 C          61.8629   88.9083   11.5876 C.2     1  UNL1        0.1964
     19 O          60.6117   89.0713   12.3987 O.2     1  UNL1       -0.2892
     20 C          62.8080   90.0619   11.4266 C.2     1  UNL1        0.0569
     21 C          62.9442   90.9268   10.2086 C.2     1  UNL1        0.1014
     22 N          64.0032   91.9526   10.4846 N.2     1  UNL1       -0.2477
     23 C          64.5215   91.7217   11.8732 C.2     1  UNL1        0.0635
     24 C          65.5707   92.4245   12.6826 C.3     1  UNL1        0.0717
     25 C          65.8811   91.9589   14.0743 C.2     1  UNL1       -0.0198
     26 C          65.1424   90.7904   14.6564 C.2     1  UNL1       -0.0041
     27 C          64.0933   90.0875   13.8470 C.2     1  UNL1        0.0010
     28 C          63.7828   90.5532   12.4553 C.2     1  UNL1        0.0182
@<TRIPOS>BOND
     1    16    17    1
     2    17    10    1
     3    10    11   ar
     4    11    12   ar
     5    12    13   ar
     6    13    14   ar
     7    14     8    1
     8     8     1    1
     9     1    18    1
    10    18    19    2
    11    18    20    1
    12    20    21    2
    13    21    22    1
    14    22    23    2
    15    23    24    1
    16    24    25    1
    17    25    26    2
    18    26    27    1
    19    27    28    2
    20     1     2    1
    21     2     3   ar
    22     3     4   ar
    23     4     5   ar
    24     5     6   ar
    25     6     7   ar
    26    14    15   ar
    27    15    10   ar
    28    28    20    1
    29     7     2   ar
    30    28    23    1
    31     8     9    1
@<TRIPOS>MOLECULE
*****
 28 31 0 0 0
SMALL
GASTEIGER

@<TRIPOS>ATOM
      1 C          64.2566   84.1743   14.1619 C.3     1  UNL1        0.1549
      2 C          63.8463   84.2388   12.7206 C.ar    1  UNL1        0.0028
      3 C          62.7553   85.1750   12.2925 C.ar    1  UNL1       -0.0023
      4 C          62.3449   85.2395   10.8512 C.ar    1  UNL1       -0.0003
      5 C          63.0256   84.3677    9.8380 C.ar    1  UNL1       -0.0000
      6 C          64.1165   83.4314   10.2660 C.ar    1  UNL1       -0.0003
      7 C          64.5269   83.3670   11.7074 C.ar    1  UNL1       -0.0023
      8 N          63.9758   82.9404   14.9672 N.pl3   1  UNL1       -0.3234
      9 H          64.3516   82.8472   15.8724 H       1  UNL1        0.1475
     10 C          60.7883   80.7583   14.0572 C.ar    1  UNL1        0.1590
     11 C          61.4162   79.6641   13.2458 C.ar    1  UNL1        0.1357
     12 N          62.8973   79.6619   13.0082 N.ar    1  UNL1       -0.2379
     13 C          63.7504   80.7540   13.5820 C.ar    1  UNL1        0.1133
     14 C          63.1226   81.8483   14.3934 C.ar    1  UNL1        0.0676
     15 C          61.6415   81.8504   14.6310 C.ar    1  UNL1        0.0544
     16 C          58.6078   79.4912   14.6814 C.3     1  UNL1        0.2525
     17 O          59.3073   80.7605   14.2947 O.3     1  UNL1       -0.4698
     18 C          64.9478   85.3439   14.7980 C.2     1  UNL1        0.1964
     19 O          66.4255   85.5293   14.6198 O.2     1  UNL1       -0.2892
     20 C          64.1612   86.3279   15.6122 C.2     1  UNL1        0.0569
     21 C          63.2782   86.0000   16.7796 C.2     1  UNL1        0.1014
     22 N          62.6907   87.2821   17.2908 N.2     1  UNL1       -0.2477
     23 C          63.2107   88.4022   16.4394 C.2     1  UNL1        0.0635
     24 C          62.9741   89.8830   16.4748 C.3     1  UNL1        0.0717
     25 C          63.6462   90.7740   15.4727 C.2     1  UNL1       -0.0198
     26 C          64.5550   90.1843   14.4353 C.2     1  UNL1       -0.0041
     27 C          64.7917   88.7035   14.3999 C.2     1  UNL1        0.0010
     28 C          64.1195   87.8125   15.4020 C.2     1  UNL1        0.0182
@<TRIPOS>BOND
     1    16    17    1
     2    17    10    1
     3    10    11   ar
     4    11    12   ar
     5    12    13   ar
     6    13    14   ar
     7    14     8    1
     8     8     1    1
     9     1    18    1
    10    18    19    2
    11    18    20    1
    12    20    21    2
    13    21    22    1
    14    22    23    2
    15    23    24    1
    16    24    25    1
    17    25    26    2
    18    26    27    1
    19    27    28    2
    20     1     2    1
    21     2     3   ar
    22     3     4   ar
    23     4     5   ar
    24     5     6   ar
    25     6     7   ar
    26    14    15   ar
    27    15    10   ar
    28    28    20    1
    29     7     2   ar
    30    28    23    1
    31     8     9    1
@<TRIPOS>MOLECULE
*****
 28 31 0 0 0
SMALL
GASTEIGER

@<TRIPOS>ATOM
      1 C          61.6240   87.3319   10.6933 C.3     1  UNL1        0.1549
      2 C          60.7411   87.5667    9.5036 C.ar    1  UNL1        0.0028
      3 C          60.1067   86.4042    8.7994 C.ar    1  UNL1       -0.0023
      4 C          59.2238   86.6390    7.6097 C.ar    1  UNL1       -0.0003
      5 C          58.9754   88.0363    7.1243 C.ar    1  UNL1       -0.0000
      6 C          59.6099   89.1989    7.8285 C.ar    1  UNL1       -0.0003
      7 C          60.4927   88.9641    9.0182 C.ar    1  UNL1       -0.0023
      8 N          61.6293   88.3124   11.8285 N.pl3   1  UNL1       -0.3234
      9 H          61.0204   88.1853   12.5916 H       1  UNL1        0.1475
     10 C          64.1252   91.1481   13.0447 C.ar    1  UNL1        0.1590
     11 C          64.4284   91.8348   11.7461 C.ar    1  UNL1        0.1357
     12 N          63.7986   91.3474   10.4750 N.ar    1  UNL1       -0.2379
     13 C          62.8656   90.1733   10.5025 C.ar    1  UNL1        0.1133
     14 C          62.5623   89.4865   11.8011 C.ar    1  UNL1        0.0676
     15 C          63.1922   89.9739   13.0722 C.ar    1  UNL1        0.0544
     16 C          66.2015   91.3513   14.5932 C.3     1  UNL1        0.2525
     17 O          64.7550   91.6355   14.3158 O.3     1  UNL1       -0.4698
     18 C          62.5016   86.1166   10.7479 C.2     1  UNL1        0.1964
     19 O          62.9919   85.4880    9.4774 O.2     1  UNL1       -0.2892
     20 C          62.8887   85.5299   12.0730 C.2     1  UNL1        0.0569
     21 C          63.3415   86.2983   13.2790 C.2     1  UNL1        0.1014
     22 N          63.6236   85.3151   14.3761 N.2     1  UNL1       -0.2477
     23 C          63.3451   83.9389   13.8482 C.2     1  UNL1        0.0635
     24 C          63.4465   82.5822   14.4796 C.3     1  UNL1        0.0717
     25 C          63.0936   81.3581   13.6877 C.2     1  UNL1       -0.0198
     26 C          62.6394   81.4909   12.2643 C.2     1  UNL1       -0.0041
     27 C          62.5380   82.8477   11.6329 C.2     1  UNL1        0.0010
     28 C          62.8909   84.0717   12.4248 C.2     1  UNL1        0.0182
@<TRIPOS>BOND
     1    16    17    1
     2    17    10    1
     3    10    11   ar
     4    11    12   ar
     5    12    13   ar
     6    13    14   ar
     7    14     8    1
     8     8     1    1
     9     1    18    1
    10    18    19    2
    11    18    20    1
    12    20    21    2
    13    21    22    1
    14    22    23    2
    15    23    24    1
    16    24    25    1
    17    25    26    2
    18    26    27    1
    19    27    28    2
    20     1     2    1
    21     2     3   ar
    22     3     4   ar
    23     4     5   ar
    24     5     6   ar
    25     6     7   ar
    26    14    15   ar
    27    15    10   ar
    28    28    20    1
    29     7     2   ar
    30    28    23    1
    31     8     9    1
@<TRIPOS>MOLECULE
*****
 28 31 0 0 0
SMALL
GASTEIGER

@<TRIPOS>ATOM
      1 C          62.4934   86.2591   11.0260 C.3     1  UNL1        0.1549
      2 C          62.0709   85.9044    9.6311 C.ar    1  UNL1        0.0028
      3 C          63.0297   85.2081    8.7112 C.ar    1  UNL1       -0.0023
      4 C          62.6072   84.8534    7.3163 C.ar    1  UNL1       -0.0003
      5 C          61.2261   85.1951    6.8413 C.ar    1  UNL1       -0.0000
      6 C          60.2674   85.8913    7.7612 C.ar    1  UNL1       -0.0003
      7 C          60.6898   86.2460    9.1561 C.ar    1  UNL1       -0.0023
      8 N          63.4778   85.3930   11.7546 N.pl3   1  UNL1       -0.3234
      9 H          64.4285   85.6469   11.7853 H       1  UNL1        0.1475
     10 C          62.6461   81.5683   12.4102 C.ar    1  UNL1        0.1590
     11 C          62.0856   81.6343   13.8000 C.ar    1  UNL1        0.1357
     12 N          61.9891   82.9532   14.5080 N.ar    1  UNL1       -0.2379
     13 C          62.4532   84.2061   13.8261 C.ar    1  UNL1        0.1133
     14 C          63.0137   84.1401   12.4363 C.ar    1  UNL1        0.0676
     15 C          63.1102   82.8212   11.7284 C.ar    1  UNL1        0.0544
     16 C          62.9357   80.2086   10.2154 C.3     1  UNL1        0.2525
     17 O          62.7425   80.2494   11.7023 O.3     1  UNL1       -0.4698
     18 C          61.9314   87.4799   11.6923 C.2     1  UNL1        0.1964
     19 O          60.4465   87.6807   11.7604 O.2     1  UNL1       -0.2892
     20 C          62.8544   88.4999   12.2904 C.2     1  UNL1        0.0569
     21 C          63.5218   88.4066   13.6305 C.2     1  UNL1        0.1014
     22 N          64.3519   89.6413   13.8217 N.2     1  UNL1       -0.2477
     23 C          64.1975   90.4976   12.5999 C.2     1  UNL1        0.0635
     24 C          64.7801   91.8285   12.2268 C.3     1  UNL1        0.0717
     25 C          64.4372   92.4539   10.9073 C.2     1  UNL1       -0.0198
     26 C          63.5117   91.7485    9.9608 C.2     1  UNL1       -0.0041
     27 C          62.9291   90.4176   10.3339 C.2     1  UNL1        0.0010
     28 C          63.2720   89.7921   11.6534 C.2     1  UNL1        0.0182
@<TRIPOS>BOND
     1    16    17    1
     2    17    10    1
     3    10    11   ar
     4    11    12   ar
     5    12    13   ar
     6    13    14   ar
     7    14     8    1
     8     8     1    1
     9     1    18    1
    10    18    19    2
    11    18    20    1
    12    20    21    2
    13    21    22    1
    14    22    23    2
    15    23    24    1
    16    24    25    1
    17    25    26    2
    18    26    27    1
    19    27    28    2
    20     1     2    1
    21     2     3   ar
    22     3     4   ar
    23     4     5   ar
    24     5     6   ar
    25     6     7   ar
    26    14    15   ar
    27    15    10   ar
    28    28    20    1
    29     7     2   ar
    30    28    23    1
    31     8     9    1
@<TRIPOS>MOLECULE
*****
 28 31 0 0 0
SMALL
GASTEIGER

@<TRIPOS>ATOM
      1 C          62.3274   87.2353   12.2043 C.3     1  UNL1        0.1549
      2 C          62.7741   88.6149   11.8205 C.ar    1  UNL1        0.0028
      3 C          63.4450   89.4949   12.8332 C.ar    1  UNL1       -0.0023
      4 C          63.8917   90.8744   12.4494 C.ar    1  UNL1       -0.0003
      5 C          63.6675   91.3739   11.0529 C.ar    1  UNL1       -0.0000
      6 C          62.9966   90.4939   10.0402 C.ar    1  UNL1       -0.0003
      7 C          62.5499   89.1143   10.4240 C.ar    1  UNL1       -0.0023
      8 N          61.0251   86.6982   11.6891 N.pl3   1  UNL1       -0.3234
      9 H          60.3143   86.4417   12.3202 H       1  UNL1        0.1475
     10 C          61.5468   85.6014    7.9109 C.ar    1  UNL1        0.1590
     11 C          60.3667   86.2591    7.2593 C.ar    1  UNL1        0.1357
     12 N          59.4060   87.0632    8.0843 N.ar    1  UNL1       -0.2379
     13 C          59.6255   87.2096    9.5609 C.ar    1  UNL1        0.1133
     14 C          60.8057   86.5518   10.2125 C.ar    1  UNL1        0.0676
     15 C          61.7663   85.7477    9.3875 C.ar    1  UNL1        0.0544
     16 C          62.1167   84.3414    5.7115 C.3     1  UNL1        0.2525
     17 O          62.5075   84.7973    7.0860 O.3     1  UNL1       -0.4698
     18 C          63.1831   86.3928   13.1033 C.2     1  UNL1        0.1964
     19 O          64.3109   87.0194   13.8683 O.2     1  UNL1       -0.2892
     20 C          62.9109   84.9238   13.2372 C.2     1  UNL1        0.0569
     21 C          62.2881   84.2470   14.4221 C.2     1  UNL1        0.1014
     22 N          62.2060   82.7786   14.1268 N.2     1  UNL1       -0.2477
     23 C          62.7781   82.5480   12.7595 C.2     1  UNL1        0.0635
     24 C          62.9585   81.3020   11.9441 C.3     1  UNL1        0.0717
     25 C          63.5747   81.3819   10.5789 C.2     1  UNL1       -0.0198
     26 C          64.0103   82.7077   10.0290 C.2     1  UNL1       -0.0041
     27 C          63.8299   83.9537   10.8444 C.2     1  UNL1        0.0010
     28 C          63.2137   83.8738   12.2097 C.2     1  UNL1        0.0182
@<TRIPOS>BOND
     1    16    17    1
     2    17    10    1
     3    10    11   ar
     4    11    12   ar
     5    12    13   ar
     6    13    14   ar
     7    14     8    1
     8     8     1    1
     9     1    18    1
    10    18    19    2
    11    18    20    1
    12    20    21    2
    13    21    22    1
    14    22    23    2
    15    23    24    1
    16    24    25    1
    17    25    26    2
    18    26    27    1
    19    27    28    2
    20     1     2    1
    21     2     3   ar
    22     3     4   ar
    23     4     5   ar
    24     5     6   ar
    25     6     7   ar
    26    14    15   ar
    27    15    10   ar
    28    28    20    1
    29     7     2   ar
    30    28    23    1
    31     8     9    1
