@<TRIPOS>MOLECULE
*****
 29 31 0 0 0
SMALL
GASTEIGER

@<TRIPOS>ATOM
      1 N          64.9990   91.7660   11.6557 N.am    1  UNL1       -0.2904
      2 C          64.0050   91.2698   12.6636 C.2     1  UNL1        0.2673
      3 O          64.1484   91.6488   14.1078 O.2     1  UNL1       -0.2684
      4 H          64.9048   91.5172   10.7078 H       1  UNL1        0.1503
      5 C          62.8676   90.3946   12.2272 C.ar    1  UNL1        0.1761
      6 C          62.5868   89.9486   10.8228 C.ar    1  UNL1        0.0673
      7 C          61.3570   89.0902   10.8462 C.ar    1  UNL1        0.1792
      8 O          60.8776   89.0056   12.2651 O.2     1  UNL1       -0.3532
      9 N          61.8112   89.8118   13.1186 N.ar    1  UNL1       -0.0723
     10 C          60.7185   88.4318    9.6592 C.ar    1  UNL1        0.0647
     11 C          60.1022   89.2695    8.5783 C.ar    1  UNL1        0.0054
     12 C          59.4637   88.6112    7.3914 C.ar    1  UNL1        0.0002
     13 C          59.4416   87.1151    7.2853 C.ar    1  UNL1        0.0023
     14 C          60.0579   86.2774    8.3662 C.ar    1  UNL1        0.0297
     15 C          60.6963   86.9357    9.5531 C.ar    1  UNL1        0.1431
     16 F          61.3127   86.0980   10.6341 F       1  UNL1       -0.2041
     17 C          66.1364   92.6412   12.0921 C.3     1  UNL1        0.1945
     18 C          67.3753   92.0267   12.6730 C.2     1  UNL1        0.3369
     19 O          68.6257   91.9378   11.8491 O.2     1  UNL1       -0.2482
     20 O          67.3638   91.5012   14.0779 O.3     1  UNL1       -0.4511
     21 C          68.9917   93.0571   15.3738 C.3     1  UNL1        0.0473
     22 C          67.6391   92.4256   15.2268 C.3     1  UNL1        0.1691
     23 C          66.5618   92.7184   16.2286 C.3     1  UNL1        0.0473
     24 C          66.0348   94.1307   11.9475 C.3     1  UNL1        0.1386
     25 N          66.5869   94.8051   10.7268 N.ar    1  UNL1       -0.3055
     26 C          66.6759   96.2854   10.5016 C.ar    1  UNL1        0.0981
     27 C          67.2909   96.5129    9.1524 C.ar    1  UNL1        0.1193
     28 N          67.5819   95.1731    8.5438 N.ar    1  UNL1       -0.2223
     29 C          67.1467   94.1176    9.5169 C.ar    1  UNL1        0.1787
@<TRIPOS>BOND
     1    21    22    1
     2    22    23    1
     3    22    20    1
     4    20    18    1
     5    18    19    2
     6    18    17    1
     7    17    24    1
     8    24    25    1
     9    25    26   ar
    10    26    27   ar
    11    27    28   ar
    12    28    29   ar
    13    17     1    1
    14     1     2   am
    15     2     3    2
    16     2     5    1
    17     5     6   ar
    18     6     7   ar
    19     7    10    1
    20    10    11   ar
    21    11    12   ar
    22    12    13   ar
    23    13    14   ar
    24    14    15   ar
    25    15    16    1
    26     7     8   ar
    27     8     9   ar
    28    29    25   ar
    29     9     5   ar
    30    15    10   ar
    31     1     4    1
@<TRIPOS>MOLECULE
*****
 29 31 0 0 0
SMALL
GASTEIGER

@<TRIPOS>ATOM
      1 N          62.8643   88.9747   11.2088 N.am    1  UNL1       -0.2904
      2 C          62.9207   89.9363   12.3586 C.2     1  UNL1        0.2673
      3 O          62.0218   89.7420   13.5436 O.2     1  UNL1       -0.2684
      4 H          63.4543   89.1022   10.4311 H       1  UNL1        0.1503
      5 C          63.8760   91.0923   12.3234 C.ar    1  UNL1        0.1761
      6 C          64.3904   91.7737   11.0901 C.ar    1  UNL1        0.0673
      7 C          65.3169   92.8723   11.5198 C.ar    1  UNL1        0.1792
      8 O          65.3751   92.8699   13.0187 O.2     1  UNL1       -0.3532
      9 N          64.4846   91.7697   13.5154 N.ar    1  UNL1       -0.0723
     10 C          66.0555   93.8090   10.6103 C.ar    1  UNL1        0.0647
     11 C          65.6472   95.2498   10.5256 C.ar    1  UNL1        0.0054
     12 C          66.3858   96.1864    9.6161 C.ar    1  UNL1        0.0002
     13 C          67.5328   95.6822    8.7914 C.ar    1  UNL1        0.0023
     14 C          67.9412   94.2413    8.8762 C.ar    1  UNL1        0.0297
     15 C          67.2026   93.3048    9.7856 C.ar    1  UNL1        0.1431
     16 F          67.6109   91.8639    9.8705 F       1  UNL1       -0.2041
     17 C          61.9090   87.8187   11.2440 C.3     1  UNL1        0.1945
     18 C          62.4039   86.4474   11.5966 C.2     1  UNL1        0.3369
     19 O          63.2888   86.2537   12.7922 O.2     1  UNL1       -0.2482
     20 O          62.0139   85.2696   10.7535 O.3     1  UNL1       -0.4511
     21 C          63.0112   85.3304    8.3551 C.3     1  UNL1        0.0473
     22 C          62.9688   84.7311    9.7296 C.3     1  UNL1        0.1691
     23 C          63.8813   83.5934   10.0802 C.3     1  UNL1        0.0473
     24 C          60.4589   88.0342   10.9266 C.3     1  UNL1        0.1386
     25 N          59.9931   88.0201    9.5009 N.ar    1  UNL1       -0.3055
     26 C          59.9580   89.1982    8.5732 C.ar    1  UNL1        0.0981
     27 C          59.4237   88.7317    7.2514 C.ar    1  UNL1        0.1193
     28 N          59.1286   87.2651    7.3623 N.ar    1  UNL1       -0.2223
     29 C          59.4805   86.8254    8.7526 C.ar    1  UNL1        0.1787
@<TRIPOS>BOND
     1    21    22    1
     2    22    23    1
     3    22    20    1
     4    20    18    1
     5    18    19    2
     6    18    17    1
     7    17    24    1
     8    24    25    1
     9    25    26   ar
    10    26    27   ar
    11    27    28   ar
    12    28    29   ar
    13    17     1    1
    14     1     2   am
    15     2     3    2
    16     2     5    1
    17     5     6   ar
    18     6     7   ar
    19     7    10    1
    20    10    11   ar
    21    11    12   ar
    22    12    13   ar
    23    13    14   ar
    24    14    15   ar
    25    15    16    1
    26     7     8   ar
    27     8     9   ar
    28    29    25   ar
    29     9     5   ar
    30    15    10   ar
    31     1     4    1
@<TRIPOS>MOLECULE
*****
 29 31 0 0 0
SMALL
GASTEIGER

@<TRIPOS>ATOM
      1 N          62.9465   89.0005   11.2598 N.am    1  UNL1       -0.2904
      2 C          63.0362   89.9372   12.4280 C.2     1  UNL1        0.2673
      3 O          62.1900   89.7026   13.6441 O.2     1  UNL1       -0.2684
      4 H          63.5018   89.1545   10.4616 H       1  UNL1        0.1503
      5 C          63.9719   91.1086   12.3799 C.ar    1  UNL1        0.1761
      6 C          64.4831   91.7784   11.1389 C.ar    1  UNL1        0.0673
      7 C          65.3879   92.8995   11.5565 C.ar    1  UNL1        0.1792
      8 O          65.4359   92.9226   13.0556 O.2     1  UNL1       -0.3532
      9 N          64.5608   91.8157   13.5645 N.ar    1  UNL1       -0.0723
     10 C          66.1167   93.8336   10.6365 C.ar    1  UNL1        0.0647
     11 C          65.7187   95.2780   10.5649 C.ar    1  UNL1        0.0054
     12 C          66.4475   96.2121    9.6449 C.ar    1  UNL1        0.0002
     13 C          67.5744   95.7017    8.7966 C.ar    1  UNL1        0.0023
     14 C          67.9724   94.2573    8.8682 C.ar    1  UNL1        0.0297
     15 C          67.2436   93.3232    9.7882 C.ar    1  UNL1        0.1431
     16 F          67.6417   91.8787    9.8599 F       1  UNL1       -0.2041
     17 C          62.0107   87.8291   11.3079 C.3     1  UNL1        0.1945
     18 C          62.5314   86.4673   11.6600 C.2     1  UNL1        0.3369
     19 O          62.3016   85.3128   10.7302 O.2     1  UNL1       -0.2482
     20 O          63.2820   86.2597   12.9420 O.3     1  UNL1       -0.4511
     21 C          62.3154   84.3294   14.3876 C.3     1  UNL1        0.0473
     22 C          63.4089   84.8823   13.5223 C.3     1  UNL1        0.1691
     23 C          64.6291   84.0579   13.2374 C.3     1  UNL1        0.0473
     24 C          60.5543   88.0197   11.0038 C.3     1  UNL1        0.1386
     25 N          60.0786   88.0173    9.5813 N.ar    1  UNL1       -0.3055
     26 C          59.9558   89.2180    8.6906 C.ar    1  UNL1        0.0981
     27 C          59.4434   88.7565    7.3584 C.ar    1  UNL1        0.1193
     28 N          59.2496   87.2706    7.4258 N.ar    1  UNL1       -0.2223
     29 C          59.6421   86.8138    8.7996 C.ar    1  UNL1        0.1787
@<TRIPOS>BOND
     1    21    22    1
     2    22    23    1
     3    22    20    1
     4    20    18    1
     5    18    19    2
     6    18    17    1
     7    17    24    1
     8    24    25    1
     9    25    26   ar
    10    26    27   ar
    11    27    28   ar
    12    28    29   ar
    13    17     1    1
    14     1     2   am
    15     2     3    2
    16     2     5    1
    17     5     6   ar
    18     6     7   ar
    19     7    10    1
    20    10    11   ar
    21    11    12   ar
    22    12    13   ar
    23    13    14   ar
    24    14    15   ar
    25    15    16    1
    26     7     8   ar
    27     8     9   ar
    28    29    25   ar
    29     9     5   ar
    30    15    10   ar
    31     1     4    1
@<TRIPOS>MOLECULE
*****
 29 31 0 0 0
SMALL
GASTEIGER

@<TRIPOS>ATOM
      1 N          62.9314   88.4818   10.9548 N.am    1  UNL1       -0.2904
      2 C          62.5485   89.6908   11.7558 C.2     1  UNL1        0.2673
      3 O          61.1897   89.7736   12.3858 O.2     1  UNL1       -0.2684
      4 H          63.8232   88.4274   10.5413 H       1  UNL1        0.1503
      5 C          63.5243   90.8171   11.9267 C.ar    1  UNL1        0.1761
      6 C          64.1859   91.5859   10.8216 C.ar    1  UNL1        0.0673
      7 C          65.0804   92.6162   11.4447 C.ar    1  UNL1        0.1792
      8 O          64.9716   92.4843   12.9349 O.2     1  UNL1       -0.3532
      9 N          64.0099   91.3724   13.2329 N.ar    1  UNL1       -0.0723
     10 C          65.9338   93.6050   10.7070 C.ar    1  UNL1        0.0647
     11 C          65.5770   95.0619   10.7219 C.ar    1  UNL1        0.0054
     12 C          66.4305   96.0505    9.9843 C.ar    1  UNL1        0.0002
     13 C          67.6407   95.5824    9.2318 C.ar    1  UNL1        0.0023
     14 C          67.9975   94.1255    9.2170 C.ar    1  UNL1        0.0297
     15 C          67.1441   93.1369    9.9546 C.ar    1  UNL1        0.1431
     16 F          67.5008   91.6799    9.9398 F       1  UNL1       -0.2041
     17 C          61.9555   87.3555   10.7839 C.3     1  UNL1        0.1945
     18 C          61.1914   87.2135    9.5010 C.2     1  UNL1        0.3369
     19 O          61.1683   85.8964    8.7835 O.2     1  UNL1       -0.2482
     20 O          60.4502   88.3887    8.9356 O.3     1  UNL1       -0.4511
     21 C          58.7253   86.9291    7.6533 C.3     1  UNL1        0.0473
     22 C          59.5136   88.1990    7.7793 C.3     1  UNL1        0.1691
     23 C          59.3654   89.2792    6.7492 C.3     1  UNL1        0.0473
     24 C          61.7439   86.3712   11.8958 C.3     1  UNL1        0.1386
     25 N          62.7510   85.2865   12.1390 N.ar    1  UNL1       -0.3055
     26 C          63.0799   84.1625   11.2018 C.ar    1  UNL1        0.0981
     27 C          64.1382   83.3166   11.8457 C.ar    1  UNL1        0.1193
     28 N          64.4634   83.9179   13.1809 N.ar    1  UNL1       -0.2223
     29 C          63.6060   85.1354   13.3622 C.ar    1  UNL1        0.1787
@<TRIPOS>BOND
     1    21    22    1
     2    22    23    1
     3    22    20    1
     4    20    18    1
     5    18    19    2
     6    18    17    1
     7    17    24    1
     8    24    25    1
     9    25    26   ar
    10    26    27   ar
    11    27    28   ar
    12    28    29   ar
    13    17     1    1
    14     1     2   am
    15     2     3    2
    16     2     5    1
    17     5     6   ar
    18     6     7   ar
    19     7    10    1
    20    10    11   ar
    21    11    12   ar
    22    12    13   ar
    23    13    14   ar
    24    14    15   ar
    25    15    16    1
    26     7     8   ar
    27     8     9   ar
    28    29    25   ar
    29     9     5   ar
    30    15    10   ar
    31     1     4    1
@<TRIPOS>MOLECULE
*****
 29 31 0 0 0
SMALL
GASTEIGER

@<TRIPOS>ATOM
      1 N          62.5434   87.7695   12.0940 N.am    1  UNL1       -0.2904
      2 C          62.4269   89.2410   12.3604 C.2     1  UNL1        0.2673
      3 O          61.4698   90.0745   11.5609 O.2     1  UNL1       -0.2684
      4 H          63.1716   87.2224   12.6187 H       1  UNL1        0.1503
      5 C          63.2676   89.8791   13.4263 C.ar    1  UNL1        0.1761
      6 C          64.6066   90.5244   13.2247 C.ar    1  UNL1        0.0673
      7 C          65.0835   91.0280   14.5547 C.ar    1  UNL1        0.1792
      8 O          64.0392   90.6939   15.5784 O.2     1  UNL1       -0.3532
      9 N          62.9169   89.9838   14.8810 N.ar    1  UNL1       -0.0723
     10 C          66.3775   91.7405   14.8154 C.ar    1  UNL1        0.0647
     11 C          67.5187   91.5993   13.8523 C.ar    1  UNL1        0.0054
     12 C          68.8126   92.3118   14.1130 C.ar    1  UNL1        0.0002
     13 C          68.9653   93.1657   15.3368 C.ar    1  UNL1        0.0023
     14 C          67.8241   93.3069   16.2999 C.ar    1  UNL1        0.0297
     15 C          66.5302   92.5944   16.0392 C.ar    1  UNL1        0.1431
     16 F          65.3888   92.7356   17.0023 F       1  UNL1       -0.2041
     17 C          61.7027   87.1314   11.0281 C.3     1  UNL1        0.1945
     18 C          62.2359   85.9648   10.2506 C.2     1  UNL1        0.3369
     19 O          62.8051   86.1749    8.8787 O.2     1  UNL1       -0.2482
     20 O          62.1999   84.5880   10.8448 O.3     1  UNL1       -0.4511
     21 C          63.7267   84.3589   12.9345 C.3     1  UNL1        0.0473
     22 C          63.4233   84.0235   11.5043 C.3     1  UNL1        0.1691
     23 C          64.3432   83.1237   10.7335 C.3     1  UNL1        0.0473
     24 C          60.3288   87.6600   10.7398 C.3     1  UNL1        0.1386
     25 N          59.9022   87.9066    9.3232 N.ar    1  UNL1       -0.3055
     26 C          59.2316   86.9152    8.4190 C.ar    1  UNL1        0.0981
     27 C          58.9861   87.5838    7.0989 C.ar    1  UNL1        0.1193
     28 N          59.5049   88.9885    7.1871 N.ar    1  UNL1       -0.2223
     29 C          60.0711   89.1879    8.5619 C.ar    1  UNL1        0.1787
@<TRIPOS>BOND
     1    21    22    1
     2    22    23    1
     3    22    20    1
     4    20    18    1
     5    18    19    2
     6    18    17    1
     7    17    24    1
     8    24    25    1
     9    25    26   ar
    10    26    27   ar
    11    27    28   ar
    12    28    29   ar
    13    17     1    1
    14     1     2   am
    15     2     3    2
    16     2     5    1
    17     5     6   ar
    18     6     7   ar
    19     7    10    1
    20    10    11   ar
    21    11    12   ar
    22    12    13   ar
    23    13    14   ar
    24    14    15   ar
    25    15    16    1
    26     7     8   ar
    27     8     9   ar
    28    29    25   ar
    29     9     5   ar
    30    15    10   ar
    31     1     4    1
@<TRIPOS>MOLECULE
*****
 29 31 0 0 0
SMALL
GASTEIGER

@<TRIPOS>ATOM
      1 N          62.1463   88.7919   11.6688 N.am    1  UNL1       -0.2904
      2 C          62.4615   87.4604   11.0543 C.2     1  UNL1        0.2673
      3 O          62.5090   87.3156    9.5620 O.2     1  UNL1       -0.2684
      4 H          62.1151   88.8870   12.6482 H       1  UNL1        0.1503
      5 C          62.7290   86.2738   11.9319 C.ar    1  UNL1        0.1761
      6 C          62.3103   84.8602   11.6553 C.ar    1  UNL1        0.0673
      7 C          62.7848   84.0052   12.7927 C.ar    1  UNL1        0.1792
      8 O          63.4968   84.8903   13.7723 O.2     1  UNL1       -0.3532
      9 N          63.4624   86.2923   13.2404 N.ar    1  UNL1       -0.0723
     10 C          62.5827   82.5249   12.9269 C.ar    1  UNL1        0.0647
     11 C          61.8927   81.9688   14.1371 C.ar    1  UNL1        0.0054
     12 C          61.6907   80.4886   14.2713 C.ar    1  UNL1        0.0002
     13 C          62.1787   79.5644   13.1954 C.ar    1  UNL1        0.0023
     14 C          62.8687   80.1205   11.9852 C.ar    1  UNL1        0.0297
     15 C          63.0707   81.6007   11.8510 C.ar    1  UNL1        0.1431
     16 F          63.7608   82.1568   10.6407 F       1  UNL1       -0.2041
     17 C          61.8787   89.9786   10.7912 C.3     1  UNL1        0.1945
     18 C          60.4795   90.2786   10.3417 C.2     1  UNL1        0.3369
     19 O          59.4192   90.5989   11.3533 O.2     1  UNL1       -0.2482
     20 O          60.1405   90.2585    8.8807 O.3     1  UNL1       -0.4511
     21 C          59.5040   87.7461    9.0631 C.3     1  UNL1        0.0473
     22 C          59.6554   88.9915    8.2407 C.3     1  UNL1        0.1691
     23 C          59.3217   88.9698    6.7785 C.3     1  UNL1        0.0473
     24 C          63.0104   90.8651   10.3630 C.3     1  UNL1        0.1386
     25 N          63.9270   91.4602   11.3903 N.ar    1  UNL1       -0.3055
     26 C          65.0836   92.3751   11.1158 C.ar    1  UNL1        0.0981
     27 C          65.7194   92.7253   12.4285 C.ar    1  UNL1        0.1193
     28 N          64.9558   92.0269   13.5144 N.ar    1  UNL1       -0.2223
     29 C          63.8480   91.2450   12.8727 C.ar    1  UNL1        0.1787
@<TRIPOS>BOND
     1    21    22    1
     2    22    23    1
     3    22    20    1
     4    20    18    1
     5    18    19    2
     6    18    17    1
     7    17    24    1
     8    24    25    1
     9    25    26   ar
    10    26    27   ar
    11    27    28   ar
    12    28    29   ar
    13    17     1    1
    14     1     2   am
    15     2     3    2
    16     2     5    1
    17     5     6   ar
    18     6     7   ar
    19     7    10    1
    20    10    11   ar
    21    11    12   ar
    22    12    13   ar
    23    13    14   ar
    24    14    15   ar
    25    15    16    1
    26     7     8   ar
    27     8     9   ar
    28    29    25   ar
    29     9     5   ar
    30    15    10   ar
    31     1     4    1
@<TRIPOS>MOLECULE
*****
 29 31 0 0 0
SMALL
GASTEIGER

@<TRIPOS>ATOM
      1 N          63.5638   85.6452   13.6680 N.am    1  UNL1       -0.2904
      2 C          63.2547   86.2585   15.0016 C.2     1  UNL1        0.2673
      3 O          62.6295   85.4274   16.0825 O.2     1  UNL1       -0.2684
      4 H          63.9741   86.1907   12.9586 H       1  UNL1        0.1503
      5 C          63.5709   87.7029   15.2542 C.ar    1  UNL1        0.1761
      6 C          64.3440   88.6088   14.3423 C.ar    1  UNL1        0.0673
      7 C          64.4204   89.9607   14.9876 C.ar    1  UNL1        0.1792
      8 O          63.6945   89.8904   16.2984 O.2     1  UNL1       -0.3532
      9 N          63.1694   88.4950   16.4632 N.ar    1  UNL1       -0.0723
     10 C          65.1029   91.1707   14.4215 C.ar    1  UNL1        0.0647
     11 C          66.0240   91.9835   15.2821 C.ar    1  UNL1        0.0054
     12 C          66.7065   93.1934   14.7160 C.ar    1  UNL1        0.0002
     13 C          66.4677   93.5904   13.2894 C.ar    1  UNL1        0.0023
     14 C          65.5465   92.7776   12.4288 C.ar    1  UNL1        0.0297
     15 C          64.8641   91.5677   12.9949 C.ar    1  UNL1        0.1431
     16 F          63.9429   90.7548   12.1343 F       1  UNL1       -0.2041
     17 C          63.2476   84.2008   13.4154 C.3     1  UNL1        0.1945
     18 C          63.3484   83.2046   14.5322 C.2     1  UNL1        0.3369
     19 O          64.6486   83.0195   15.2571 O.2     1  UNL1       -0.2482
     20 O          62.1491   82.3935   14.9241 O.3     1  UNL1       -0.4511
     21 C          62.8791   80.3956   13.4321 C.3     1  UNL1        0.0473
     22 C          61.8065   81.1461   14.1645 C.3     1  UNL1        0.1691
     23 C          60.3915   80.6492   14.1375 C.3     1  UNL1        0.0473
     24 C          62.8307   83.7527   12.0460 C.3     1  UNL1        0.1386
     25 N          62.5131   84.7683   10.9889 N.ar    1  UNL1       -0.3055
     26 C          61.5148   85.8815   11.1072 C.ar    1  UNL1        0.0981
     27 C          61.5228   86.6504    9.8192 C.ar    1  UNL1        0.1193
     28 N          62.5261   86.0123    8.9048 N.ar    1  UNL1       -0.2223
     29 C          63.1382   84.8491    9.6277 C.ar    1  UNL1        0.1787
@<TRIPOS>BOND
     1    21    22    1
     2    22    23    1
     3    22    20    1
     4    20    18    1
     5    18    19    2
     6    18    17    1
     7    17    24    1
     8    24    25    1
     9    25    26   ar
    10    26    27   ar
    11    27    28   ar
    12    28    29   ar
    13    17     1    1
    14     1     2   am
    15     2     3    2
    16     2     5    1
    17     5     6   ar
    18     6     7   ar
    19     7    10    1
    20    10    11   ar
    21    11    12   ar
    22    12    13   ar
    23    13    14   ar
    24    14    15   ar
    25    15    16    1
    26     7     8   ar
    27     8     9   ar
    28    29    25   ar
    29     9     5   ar
    30    15    10   ar
    31     1     4    1
@<TRIPOS>MOLECULE
*****
 29 31 0 0 0
SMALL
GASTEIGER

@<TRIPOS>ATOM
      1 N          61.9345   88.8105   12.0199 N.am    1  UNL1       -0.2904
      2 C          62.5145   87.6009   11.3488 C.2     1  UNL1        0.2673
      3 O          62.8112   87.6289    9.8787 O.2     1  UNL1       -0.2684
      4 H          61.7397   88.7922   12.9848 H       1  UNL1        0.1503
      5 C          62.7977   86.3634   12.1477 C.ar    1  UNL1        0.1761
      6 C          62.3391   84.9746   11.8144 C.ar    1  UNL1        0.0673
      7 C          62.8473   84.0503   12.8809 C.ar    1  UNL1        0.1792
      8 O          63.6199   84.8677   13.8733 O.2     1  UNL1       -0.3532
      9 N          63.5893   86.2973   13.4202 N.ar    1  UNL1       -0.0723
     10 C          62.6223   82.5685   12.9439 C.ar    1  UNL1        0.0647
     11 C          61.9520   81.9620   14.1409 C.ar    1  UNL1        0.0054
     12 C          61.7270   80.4803   14.2039 C.ar    1  UNL1        0.0002
     13 C          62.1724   79.6052   13.0699 C.ar    1  UNL1        0.0023
     14 C          62.8426   80.2118   11.8729 C.ar    1  UNL1        0.0297
     15 C          63.0676   81.6934   11.8100 C.ar    1  UNL1        0.1431
     16 F          63.7379   82.3001   10.6129 F       1  UNL1       -0.2041
     17 C          61.6513   90.0481   11.2210 C.3     1  UNL1        0.1945
     18 C          62.6712   91.1457   11.1517 C.2     1  UNL1        0.3369
     19 O          63.2073   91.5887    9.8226 O.2     1  UNL1       -0.2482
     20 O          63.1550   91.8005   12.4116 O.3     1  UNL1       -0.4511
     21 C          64.6713   90.3084   13.9032 C.3     1  UNL1        0.0473
     22 C          64.5101   91.4631   12.9595 C.3     1  UNL1        0.1691
     23 C          65.7039   92.2805   12.5636 C.3     1  UNL1        0.0473
     24 C          60.3481   90.1879   10.4915 C.3     1  UNL1        0.1386
     25 N          59.9303   89.1465    9.4961 N.ar    1  UNL1       -0.3055
     26 C          59.9041   89.3119    8.0055 C.ar    1  UNL1        0.0981
     27 C          59.4229   88.0244    7.4047 C.ar    1  UNL1        0.1193
     28 N          59.1518   87.0633    8.5240 N.ar    1  UNL1       -0.2223
     29 C          59.4654   87.7569    9.8166 C.ar    1  UNL1        0.1787
@<TRIPOS>BOND
     1    21    22    1
     2    22    23    1
     3    22    20    1
     4    20    18    1
     5    18    19    2
     6    18    17    1
     7    17    24    1
     8    24    25    1
     9    25    26   ar
    10    26    27   ar
    11    27    28   ar
    12    28    29   ar
    13    17     1    1
    14     1     2   am
    15     2     3    2
    16     2     5    1
    17     5     6   ar
    18     6     7   ar
    19     7    10    1
    20    10    11   ar
    21    11    12   ar
    22    12    13   ar
    23    13    14   ar
    24    14    15   ar
    25    15    16    1
    26     7     8   ar
    27     8     9   ar
    28    29    25   ar
    29     9     5   ar
    30    15    10   ar
    31     1     4    1
@<TRIPOS>MOLECULE
*****
 29 31 0 0 0
SMALL
GASTEIGER

@<TRIPOS>ATOM
      1 N          62.5916   87.3446    9.6440 N.am    1  UNL1       -0.2904
      2 C          62.0917   87.7325   11.0040 C.2     1  UNL1        0.2673
      3 O          60.9747   86.9600   11.6408 O.2     1  UNL1       -0.2684
      4 H          63.3247   87.8516    9.2259 H       1  UNL1        0.1503
      5 C          62.7087   88.8929   11.7271 C.ar    1  UNL1        0.1761
      6 C          63.5417   89.9756   11.1077 C.ar    1  UNL1        0.0673
      7 C          63.9489   90.9261   12.1943 C.ar    1  UNL1        0.1792
      8 O          63.3675   90.4307   13.4853 O.2     1  UNL1       -0.3532
      9 N          62.6010   89.1741   13.1966 N.ar    1  UNL1       -0.0723
     10 C          64.7898   92.1560   12.0205 C.ar    1  UNL1        0.0647
     11 C          64.8055   92.8739   10.7036 C.ar    1  UNL1        0.0054
     12 C          65.6464   94.1038   10.5299 C.ar    1  UNL1        0.0002
     13 C          66.4717   94.6158   11.6731 C.ar    1  UNL1        0.0023
     14 C          66.4560   93.8979   12.9900 C.ar    1  UNL1        0.0297
     15 C          65.6150   92.6680   13.1637 C.ar    1  UNL1        0.1431
     16 F          65.5993   91.9501   14.4807 F       1  UNL1       -0.2041
     17 C          61.9746   86.1843    8.9208 C.3     1  UNL1        0.1945
     18 C          60.5877   86.3009    8.3616 C.2     1  UNL1        0.3369
     19 O          60.1409   85.3792    7.2656 O.2     1  UNL1       -0.2482
     20 O          59.6474   87.3391    8.8983 O.3     1  UNL1       -0.4511
     21 C          59.3517   89.0160    6.9359 C.3     1  UNL1        0.0473
     22 C          59.6980   88.7419    8.3694 C.3     1  UNL1        0.1691
     23 C          60.0950   89.8706    9.2740 C.3     1  UNL1        0.0473
     24 C          62.7445   84.9074    8.7571 C.3     1  UNL1        0.1386
     25 N          63.2443   84.1728    9.9654 N.ar    1  UNL1       -0.3055
     26 C          62.6920   84.2835   11.3556 C.ar    1  UNL1        0.0981
     27 C          63.4905   83.3775   12.2453 C.ar    1  UNL1        0.1193
     28 N          64.5364   82.7068   11.4049 N.ar    1  UNL1       -0.2223
     29 C          64.3842   83.1983    9.9959 C.ar    1  UNL1        0.1787
@<TRIPOS>BOND
     1    21    22    1
     2    22    23    1
     3    22    20    1
     4    20    18    1
     5    18    19    2
     6    18    17    1
     7    17    24    1
     8    24    25    1
     9    25    26   ar
    10    26    27   ar
    11    27    28   ar
    12    28    29   ar
    13    17     1    1
    14     1     2   am
    15     2     3    2
    16     2     5    1
    17     5     6   ar
    18     6     7   ar
    19     7    10    1
    20    10    11   ar
    21    11    12   ar
    22    12    13   ar
    23    13    14   ar
    24    14    15   ar
    25    15    16    1
    26     7     8   ar
    27     8     9   ar
    28    29    25   ar
    29     9     5   ar
    30    15    10   ar
    31     1     4    1
