@<TRIPOS>MOLECULE
*****
 24 26 0 0 0
SMALL
GASTEIGER

@<TRIPOS>ATOM
      1 C          64.8706   90.7386   14.0329 C.3     1  UNL1        0.1205
      2 C          64.3230   89.6330   14.8859 C.ar    1  UNL1       -0.0000
      3 C          63.4952   89.9575   16.0940 C.ar    1  UNL1       -0.0015
      4 C          62.9476   88.8517   16.9470 C.ar    1  UNL1        0.0111
      5 C          63.2278   87.4216   16.5919 C.ar    1  UNL1        0.0577
      6 CL         62.6802   86.3159   17.4449 Cl      1  UNL1       -0.0822
      7 C          64.0555   87.0971   15.3838 C.ar    1  UNL1        0.0111
      8 C          64.6031   88.2027   14.5308 C.ar    1  UNL1       -0.0015
      9 C          66.0616   91.5239   14.4965 C.ar    1  UNL1       -0.0001
     10 C          65.9689   92.3666   15.7340 C.ar    1  UNL1       -0.0023
     11 C          67.1599   93.1518   16.1975 C.ar    1  UNL1       -0.0003
     12 C          68.4435   93.0944   15.4236 C.ar    1  UNL1       -0.0000
     13 C          68.5362   92.2518   14.1862 C.ar    1  UNL1       -0.0003
     14 C          67.3452   91.4665   13.7226 C.ar    1  UNL1       -0.0023
     15 C          64.9256   91.9577   11.7393 C.3     1  UNL1        0.1155
     16 N          64.2272   91.0590   12.7163 N.am    1  UNL1       -0.2703
     17 C          62.8854   90.4807   12.3768 C.2     1  UNL1        0.2493
     18 O          62.1870   89.5821   13.3538 O.2     1  UNL1       -0.2727
     19 C          62.2420   90.8011   11.0602 C.3     1  UNL1        0.1932
     20 N          61.5429   89.7239   10.2852 N.ar    1  UNL1       -0.2992
     21 C          62.0866   88.3581    9.9869 C.ar    1  UNL1        0.0984
     22 C          61.0571   87.6133    9.1897 C.ar    1  UNL1        0.1193
     23 N          59.8771   88.5189    8.9953 N.ar    1  UNL1       -0.2223
     24 C          60.1774   89.8233    9.6723 C.ar    1  UNL1        0.1790
@<TRIPOS>BOND
     1    15    16    1
     2    16    17   am
     3    17    18    2
     4    17    19    1
     5    19    20    1
     6    20    21   ar
     7    21    22   ar
     8    22    23   ar
     9    23    24   ar
    10    16     1    1
    11     1     9    1
    12     9    10   ar
    13    10    11   ar
    14    11    12   ar
    15    12    13   ar
    16    13    14   ar
    17     1     2    1
    18     2     3   ar
    19     3     4   ar
    20     4     5   ar
    21     5     6    1
    22     5     7   ar
    23     7     8   ar
    24    24    20   ar
    25    14     9   ar
    26     8     2   ar
@<TRIPOS>MOLECULE
*****
 24 26 0 0 0
SMALL
GASTEIGER

@<TRIPOS>ATOM
      1 C          62.0076   86.5945   10.6290 C.3     1  UNL1        0.1205
      2 C          61.9263   85.9716    9.2669 C.ar    1  UNL1       -0.0000
      3 C          60.6466   86.0377    8.4871 C.ar    1  UNL1       -0.0015
      4 C          60.5653   85.4147    7.1249 C.ar    1  UNL1        0.0111
      5 C          61.7637   84.7258    6.5426 C.ar    1  UNL1        0.0577
      6 CL         61.6824   84.1029    5.1805 Cl      1  UNL1       -0.0822
      7 C          63.0434   84.6597    7.3224 C.ar    1  UNL1        0.0111
      8 C          63.1247   85.2826    8.6845 C.ar    1  UNL1       -0.0015
      9 C          61.5312   88.0012   10.8401 C.ar    1  UNL1       -0.0001
     10 C          62.3599   89.1542   10.3568 C.ar    1  UNL1       -0.0023
     11 C          61.8835   90.5607   10.5679 C.ar    1  UNL1       -0.0003
     12 C          60.5784   90.8142   11.2624 C.ar    1  UNL1       -0.0000
     13 C          59.7496   89.6612   11.7457 C.ar    1  UNL1       -0.0003
     14 C          60.2260   88.2547   11.5345 C.ar    1  UNL1       -0.0023
     15 C          62.3630   84.3260   11.8445 C.3     1  UNL1        0.1155
     16 N          62.5653   85.8109   11.7800 N.am    1  UNL1       -0.2703
     17 C          63.3253   86.5121   12.8666 C.2     1  UNL1        0.2493
     18 O          63.5276   87.9970   12.8021 O.2     1  UNL1       -0.2727
     19 C          63.8830   85.7285   14.0176 C.3     1  UNL1        0.1932
     20 N          63.3337   85.9305   15.3987 N.ar    1  UNL1       -0.2992
     21 C          63.5659   87.1265   16.2736 C.ar    1  UNL1        0.0984
     22 C          62.8314   86.9072   17.5630 C.ar    1  UNL1        0.1193
     23 N          62.1453   85.5755   17.4849 N.ar    1  UNL1       -0.2223
     24 C          62.4557   84.9719   16.1473 C.ar    1  UNL1        0.1790
@<TRIPOS>BOND
     1    15    16    1
     2    16    17   am
     3    17    18    2
     4    17    19    1
     5    19    20    1
     6    20    21   ar
     7    21    22   ar
     8    22    23   ar
     9    23    24   ar
    10    16     1    1
    11     1     9    1
    12     9    10   ar
    13    10    11   ar
    14    11    12   ar
    15    12    13   ar
    16    13    14   ar
    17     1     2    1
    18     2     3   ar
    19     3     4   ar
    20     4     5   ar
    21     5     6    1
    22     5     7   ar
    23     7     8   ar
    24    24    20   ar
    25    14     9   ar
    26     8     2   ar
@<TRIPOS>MOLECULE
*****
 24 26 0 0 0
SMALL
GASTEIGER

@<TRIPOS>ATOM
      1 C          64.6798   90.5593   14.0563 C.3     1  UNL1        0.1205
      2 C          65.8179   91.4096   14.5375 C.ar    1  UNL1       -0.0000
      3 C          65.6648   92.2338   15.7814 C.ar    1  UNL1       -0.0015
      4 C          66.8030   93.0841   16.2626 C.ar    1  UNL1        0.0111
      5 C          68.0943   93.1103   15.4998 C.ar    1  UNL1        0.0577
      6 CL         69.2325   93.9605   15.9810 Cl      1  UNL1       -0.0822
      7 C          68.2475   92.2861   14.2559 C.ar    1  UNL1        0.0111
      8 C          67.1093   91.4358   13.7748 C.ar    1  UNL1       -0.0015
      9 C          64.2147   89.3937   14.8780 C.ar    1  UNL1       -0.0001
     10 C          63.4312   89.6276   16.1355 C.ar    1  UNL1       -0.0023
     11 C          62.9662   88.4620   16.9572 C.ar    1  UNL1       -0.0003
     12 C          63.2847   87.0625   16.5213 C.ar    1  UNL1       -0.0000
     13 C          64.0682   86.8286   15.2638 C.ar    1  UNL1       -0.0003
     14 C          64.5332   87.9942   14.4422 C.ar    1  UNL1       -0.0023
     15 C          64.7270   91.6792   11.7125 C.3     1  UNL1        0.1155
     16 N          64.0066   90.8746   12.7534 N.am    1  UNL1       -0.2703
     17 C          62.6130   90.3852   12.4916 C.2     1  UNL1        0.2493
     18 O          61.8927   89.5806   13.5326 O.2     1  UNL1       -0.2727
     19 C          61.9399   90.7005   11.1887 C.3     1  UNL1        0.1932
     20 N          61.4377   89.5889   10.3157 N.ar    1  UNL1       -0.2992
     21 C          60.1496   89.5846    9.5472 C.ar    1  UNL1        0.0984
     22 C          60.0513   88.2795    8.8144 C.ar    1  UNL1        0.1193
     23 N          61.2787   87.4771    9.1301 N.ar    1  UNL1       -0.2223
     24 C          62.1356   88.2863   10.0579 C.ar    1  UNL1        0.1790
@<TRIPOS>BOND
     1    15    16    1
     2    16    17   am
     3    17    18    2
     4    17    19    1
     5    19    20    1
     6    20    21   ar
     7    21    22   ar
     8    22    23   ar
     9    23    24   ar
    10    16     1    1
    11     1     9    1
    12     9    10   ar
    13    10    11   ar
    14    11    12   ar
    15    12    13   ar
    16    13    14   ar
    17     1     2    1
    18     2     3   ar
    19     3     4   ar
    20     4     5   ar
    21     5     6    1
    22     5     7   ar
    23     7     8   ar
    24    24    20   ar
    25    14     9   ar
    26     8     2   ar
@<TRIPOS>MOLECULE
*****
 24 26 0 0 0
SMALL
GASTEIGER

@<TRIPOS>ATOM
      1 C          63.2194   83.6804   13.1332 C.3     1  UNL1        0.1205
      2 C          63.0315   84.2046   11.7405 C.ar    1  UNL1       -0.0000
      3 C          63.7355   83.5476   10.5904 C.ar    1  UNL1       -0.0015
      4 C          63.5475   84.0719    9.1976 C.ar    1  UNL1        0.0111
      5 C          62.6556   85.2532    8.9549 C.ar    1  UNL1        0.0577
      6 CL         62.4676   85.7775    7.5622 Cl      1  UNL1       -0.0822
      7 C          61.9516   85.9103   10.1050 C.ar    1  UNL1        0.0111
      8 C          62.1395   85.3860   11.4977 C.ar    1  UNL1       -0.0015
      9 C          62.7864   82.2853   13.4743 C.ar    1  UNL1       -0.0001
     10 C          63.7707   81.1558   13.4025 C.ar    1  UNL1       -0.0023
     11 C          63.3375   79.7608   13.7436 C.ar    1  UNL1       -0.0003
     12 C          61.9201   79.4953   14.1564 C.ar    1  UNL1       -0.0000
     13 C          60.9358   80.6249   14.2282 C.ar    1  UNL1       -0.0003
     14 C          61.3689   82.0199   13.8871 C.ar    1  UNL1       -0.0023
     15 C          65.3162   84.8188   14.1616 C.3     1  UNL1        0.1155
     16 N          63.8405   84.5511   14.1849 N.am    1  UNL1       -0.2703
     17 C          62.9857   85.1542   15.2600 C.2     1  UNL1        0.2493
     18 O          61.5100   84.8866   15.2833 O.2     1  UNL1       -0.2727
     19 C          63.6067   86.0250   16.3117 C.3     1  UNL1        0.1932
     20 N          63.5999   87.5163   16.1507 N.ar    1  UNL1       -0.2992
     21 C          64.1571   88.2799   14.9861 C.ar    1  UNL1        0.0984
     22 C          63.9363   89.7413   15.2417 C.ar    1  UNL1        0.1193
     23 N          63.2426   89.8810   16.5644 N.ar    1  UNL1       -0.2223
     24 C          63.0348   88.5058   17.1262 C.ar    1  UNL1        0.1790
@<TRIPOS>BOND
     1    15    16    1
     2    16    17   am
     3    17    18    2
     4    17    19    1
     5    19    20    1
     6    20    21   ar
     7    21    22   ar
     8    22    23   ar
     9    23    24   ar
    10    16     1    1
    11     1     9    1
    12     9    10   ar
    13    10    11   ar
    14    11    12   ar
    15    12    13   ar
    16    13    14   ar
    17     1     2    1
    18     2     3   ar
    19     3     4   ar
    20     4     5   ar
    21     5     6    1
    22     5     7   ar
    23     7     8   ar
    24    24    20   ar
    25    14     9   ar
    26     8     2   ar
@<TRIPOS>MOLECULE
*****
 24 26 0 0 0
SMALL
GASTEIGER

@<TRIPOS>ATOM
      1 C          63.3342   89.2118   12.6712 C.3     1  UNL1        0.1205
      2 C          63.6175   87.8484   13.2287 C.ar    1  UNL1       -0.0000
      3 C          63.1368   86.6267   12.5033 C.ar    1  UNL1       -0.0015
      4 C          63.4202   85.2633   13.0609 C.ar    1  UNL1        0.0111
      5 C          64.1843   85.1217   14.3439 C.ar    1  UNL1        0.0577
      6 CL         64.4676   83.7583   14.9015 Cl      1  UNL1       -0.0822
      7 C          64.6650   86.3434   15.0694 C.ar    1  UNL1        0.0111
      8 C          64.3816   87.7068   14.5118 C.ar    1  UNL1       -0.0015
      9 C          62.2100   89.4049   11.6969 C.ar    1  UNL1       -0.0001
     10 C          62.3309   88.8773   10.2981 C.ar    1  UNL1       -0.0023
     11 C          61.2068   89.0705    9.3239 C.ar    1  UNL1       -0.0003
     12 C          59.9618   89.7912    9.7487 C.ar    1  UNL1       -0.0000
     13 C          59.8409   90.3189   11.1476 C.ar    1  UNL1       -0.0003
     14 C          60.9650   90.1257   12.1217 C.ar    1  UNL1       -0.0023
     15 C          64.6866   90.4749   14.4947 C.3     1  UNL1        0.1155
     16 N          64.1749   90.3821   13.0878 N.am    1  UNL1       -0.2703
     17 C          64.5040   91.4596   12.0974 C.2     1  UNL1        0.2493
     18 O          63.9922   91.3668   10.6905 O.2     1  UNL1       -0.2727
     19 C          65.3447   92.6299   12.5140 C.3     1  UNL1        0.1932
     20 N          66.1732   93.3579   11.4974 N.ar    1  UNL1       -0.2992
     21 C          66.0757   94.8166   11.1618 C.ar    1  UNL1        0.0984
     22 C          67.0869   95.1153   10.0948 C.ar    1  UNL1        0.1193
     23 N          67.8093   93.8412    9.7710 N.ar    1  UNL1       -0.2223
     24 C          67.2446   92.7551   10.6379 C.ar    1  UNL1        0.1790
@<TRIPOS>BOND
     1    15    16    1
     2    16    17   am
     3    17    18    2
     4    17    19    1
     5    19    20    1
     6    20    21   ar
     7    21    22   ar
     8    22    23   ar
     9    23    24   ar
    10    16     1    1
    11     1     9    1
    12     9    10   ar
    13    10    11   ar
    14    11    12   ar
    15    12    13   ar
    16    13    14   ar
    17     1     2    1
    18     2     3   ar
    19     3     4   ar
    20     4     5   ar
    21     5     6    1
    22     5     7   ar
    23     7     8   ar
    24    24    20   ar
    25    14     9   ar
    26     8     2   ar
@<TRIPOS>MOLECULE
*****
 24 26 0 0 0
SMALL
GASTEIGER

@<TRIPOS>ATOM
      1 C          63.6441   89.9352   13.3139 C.3     1  UNL1        0.1205
      2 C          62.7242   89.7411   12.1452 C.ar    1  UNL1       -0.0000
      3 C          61.5416   90.6459   11.9632 C.ar    1  UNL1       -0.0015
      4 C          60.6216   90.4518   10.7944 C.ar    1  UNL1        0.0111
      5 C          60.8842   89.3530    9.8077 C.ar    1  UNL1        0.0577
      6 CL         59.9642   89.1589    8.6390 Cl      1  UNL1       -0.0822
      7 C          62.0667   88.4482    9.9897 C.ar    1  UNL1        0.0111
      8 C          62.9867   88.6423   11.1584 C.ar    1  UNL1       -0.0015
      9 C          63.6340   88.9530   14.4476 C.ar    1  UNL1       -0.0001
     10 C          64.2046   87.5792   14.2548 C.ar    1  UNL1       -0.0023
     11 C          64.1945   86.5971   15.3885 C.ar    1  UNL1       -0.0003
     12 C          63.6138   86.9886   16.7149 C.ar    1  UNL1       -0.0000
     13 C          63.0431   88.3624   16.9077 C.ar    1  UNL1       -0.0003
     14 C          63.0533   89.3445   15.7740 C.ar    1  UNL1       -0.0023
     15 C          65.2445   91.4995   14.6336 C.3     1  UNL1        0.1155
     16 N          64.5742   91.1115   13.3490 N.am    1  UNL1       -0.2703
     17 C          64.8341   91.8997   12.0995 C.2     1  UNL1        0.2493
     18 O          64.1638   91.5117   10.8150 O.2     1  UNL1       -0.2727
     19 C          65.7642   93.0760   12.1346 C.3     1  UNL1        0.1932
     20 N          66.7416   93.2929   11.0176 N.ar    1  UNL1       -0.2992
     21 C          67.6184   92.2458   10.3975 C.ar    1  UNL1        0.0984
     22 C          68.4324   92.9007    9.3213 C.ar    1  UNL1        0.1193
     23 N          68.0587   94.3528    9.2762 N.ar    1  UNL1       -0.2223
     24 C          67.0137   94.5951   10.3246 C.ar    1  UNL1        0.1790
@<TRIPOS>BOND
     1    15    16    1
     2    16    17   am
     3    17    18    2
     4    17    19    1
     5    19    20    1
     6    20    21   ar
     7    21    22   ar
     8    22    23   ar
     9    23    24   ar
    10    16     1    1
    11     1     9    1
    12     9    10   ar
    13    10    11   ar
    14    11    12   ar
    15    12    13   ar
    16    13    14   ar
    17     1     2    1
    18     2     3   ar
    19     3     4   ar
    20     4     5   ar
    21     5     6    1
    22     5     7   ar
    23     7     8   ar
    24    24    20   ar
    25    14     9   ar
    26     8     2   ar
@<TRIPOS>MOLECULE
*****
 24 26 0 0 0
SMALL
GASTEIGER

@<TRIPOS>ATOM
      1 C          61.8921   87.0165   10.7028 C.3     1  UNL1        0.1205
      2 C          61.8230   86.3128    9.3800 C.ar    1  UNL1       -0.0000
      3 C          63.0570   85.6923    8.7951 C.ar    1  UNL1       -0.0015
      4 C          62.9878   84.9885    7.4722 C.ar    1  UNL1        0.0111
      5 C          61.6846   84.9052    6.7342 C.ar    1  UNL1        0.0577
      6 CL         61.6155   84.2015    5.4114 Cl      1  UNL1       -0.0822
      7 C          60.4505   85.5257    7.3191 C.ar    1  UNL1        0.0111
      8 C          60.5197   86.2295    8.6419 C.ar    1  UNL1       -0.0015
      9 C          61.1693   88.3162   10.8996 C.ar    1  UNL1       -0.0001
     10 C          59.8367   88.3365   11.5879 C.ar    1  UNL1       -0.0023
     11 C          59.1141   89.6361   11.7847 C.ar    1  UNL1       -0.0003
     12 C          59.7240   90.9153   11.2932 C.ar    1  UNL1       -0.0000
     13 C          61.0565   90.8950   10.6050 C.ar    1  UNL1       -0.0003
     14 C          61.7792   89.5954   10.4082 C.ar    1  UNL1       -0.0023
     15 C          63.4555   87.3116   12.7567 C.3     1  UNL1        0.1155
     16 N          62.6840   86.4207   11.8288 N.am    1  UNL1       -0.2703
     17 C          62.7043   84.9340   12.0269 C.2     1  UNL1        0.2493
     18 O          61.9328   84.0431   11.0990 O.2     1  UNL1       -0.2727
     19 C          63.4962   84.3382   13.1530 C.3     1  UNL1        0.1932
     20 N          63.2810   82.9067   13.5459 N.ar    1  UNL1       -0.2992
     21 C          64.0863   81.7324   13.0744 C.ar    1  UNL1        0.0984
     22 C          63.5258   80.4981   13.7165 C.ar    1  UNL1        0.1193
     23 N          62.3740   80.9095   14.5849 N.ar    1  UNL1       -0.2223
     24 C          62.2228   82.3981   14.4795 C.ar    1  UNL1        0.1790
@<TRIPOS>BOND
     1    15    16    1
     2    16    17   am
     3    17    18    2
     4    17    19    1
     5    19    20    1
     6    20    21   ar
     7    21    22   ar
     8    22    23   ar
     9    23    24   ar
    10    16     1    1
    11     1     9    1
    12     9    10   ar
    13    10    11   ar
    14    11    12   ar
    15    12    13   ar
    16    13    14   ar
    17     1     2    1
    18     2     3   ar
    19     3     4   ar
    20     4     5   ar
    21     5     6    1
    22     5     7   ar
    23     7     8   ar
    24    24    20   ar
    25    14     9   ar
    26     8     2   ar
@<TRIPOS>MOLECULE
*****
 24 26 0 0 0
SMALL
GASTEIGER

@<TRIPOS>ATOM
      1 C          63.0257   86.2087   12.3507 C.3     1  UNL1        0.1205
      2 C          62.1701   86.2440   11.1192 C.ar    1  UNL1       -0.0000
      3 C          60.8842   87.0162   11.1212 C.ar    1  UNL1       -0.0015
      4 C          60.0286   87.0515    9.8896 C.ar    1  UNL1        0.0111
      5 C          60.4590   86.3147    8.6560 C.ar    1  UNL1        0.0577
      6 CL         59.6034   86.3501    7.4245 Cl      1  UNL1       -0.0822
      7 C          61.7450   85.5425    8.6540 C.ar    1  UNL1        0.0111
      8 C          62.6005   85.5072    9.8855 C.ar    1  UNL1       -0.0015
      9 C          63.4836   87.4896   12.9829 C.ar    1  UNL1       -0.0001
     10 C          63.2491   88.7963   12.2847 C.ar    1  UNL1       -0.0023
     11 C          63.7069   90.0772   12.9169 C.ar    1  UNL1       -0.0003
     12 C          64.3993   90.0513   14.2473 C.ar    1  UNL1       -0.0000
     13 C          64.6339   88.7446   14.9455 C.ar    1  UNL1       -0.0003
     14 C          64.1760   87.4638   14.3133 C.ar    1  UNL1       -0.0023
     15 C          64.5028   84.0718   12.3086 C.3     1  UNL1        0.1155
     16 N          63.4235   84.8924   12.9501 N.am    1  UNL1       -0.2703
     17 C          62.7418   84.3968   14.1910 C.2     1  UNL1        0.2493
     18 O          61.6625   85.2175   14.8325 O.2     1  UNL1       -0.2727
     19 C          63.1396   83.0806   14.7904 C.3     1  UNL1        0.1932
     20 N          62.6064   81.8024   14.2143 N.ar    1  UNL1       -0.2992
     21 C          63.3998   80.7762   13.4612 C.ar    1  UNL1        0.0984
     22 C          62.4699   79.6656   13.0716 C.ar    1  UNL1        0.1193
     23 N          61.1017   80.0054   13.5840 N.ar    1  UNL1       -0.2223
     24 C          61.1860   81.3260   14.2902 C.ar    1  UNL1        0.1790
@<TRIPOS>BOND
     1    15    16    1
     2    16    17   am
     3    17    18    2
     4    17    19    1
     5    19    20    1
     6    20    21   ar
     7    21    22   ar
     8    22    23   ar
     9    23    24   ar
    10    16     1    1
    11     1     9    1
    12     9    10   ar
    13    10    11   ar
    14    11    12   ar
    15    12    13   ar
    16    13    14   ar
    17     1     2    1
    18     2     3   ar
    19     3     4   ar
    20     4     5   ar
    21     5     6    1
    22     5     7   ar
    23     7     8   ar
    24    24    20   ar
    25    14     9   ar
    26     8     2   ar
@<TRIPOS>MOLECULE
*****
 24 26 0 0 0
SMALL
GASTEIGER

@<TRIPOS>ATOM
      1 C          63.0418   86.0523   12.2893 C.3     1  UNL1        0.1205
      2 C          63.4624   87.3370   12.9393 C.ar    1  UNL1       -0.0000
      3 C          64.1663   87.3122   14.2637 C.ar    1  UNL1       -0.0015
      4 C          64.5869   88.5970   14.9136 C.ar    1  UNL1        0.0111
      5 C          64.3037   89.9066   14.2392 C.ar    1  UNL1        0.0577
      6 CL         64.7243   91.1913   14.8892 Cl      1  UNL1       -0.0822
      7 C          63.5999   89.9314   12.9148 C.ar    1  UNL1        0.0111
      8 C          63.1792   88.6466   12.2648 C.ar    1  UNL1       -0.0015
      9 C          62.2753   86.0798   11.0001 C.ar    1  UNL1       -0.0001
     10 C          60.9375   86.7551   10.9372 C.ar    1  UNL1       -0.0023
     11 C          60.1711   86.7825    9.6481 C.ar    1  UNL1       -0.0003
     12 C          60.7426   86.1346    8.4219 C.ar    1  UNL1       -0.0000
     13 C          62.0804   85.4593    8.4848 C.ar    1  UNL1       -0.0003
     14 C          62.8468   85.4319    9.7739 C.ar    1  UNL1       -0.0023
     15 C          64.4363   83.8603   12.3151 C.3     1  UNL1        0.1155
     16 N          63.3876   84.7401   12.9284 N.am    1  UNL1       -0.2703
     17 C          62.6846   84.3075   14.1810 C.2     1  UNL1        0.2493
     18 O          61.6358   85.1873   14.7943 O.2     1  UNL1       -0.2727
     19 C          63.0303   82.9953   14.8201 C.3     1  UNL1        0.1932
     20 N          62.5285   81.7145   14.2221 N.ar    1  UNL1       -0.2992
     21 C          63.3500   80.7138   13.4646 C.ar    1  UNL1        0.0984
     22 C          62.4463   79.5903   13.0509 C.ar    1  UNL1        0.1193
     23 N          61.0662   79.8967   13.5527 N.ar    1  UNL1       -0.2223
     24 C          61.1171   81.2095   14.2765 C.ar    1  UNL1        0.1790
@<TRIPOS>BOND
     1    15    16    1
     2    16    17   am
     3    17    18    2
     4    17    19    1
     5    19    20    1
     6    20    21   ar
     7    21    22   ar
     8    22    23   ar
     9    23    24   ar
    10    16     1    1
    11     1     9    1
    12     9    10   ar
    13    10    11   ar
    14    11    12   ar
    15    12    13   ar
    16    13    14   ar
    17     1     2    1
    18     2     3   ar
    19     3     4   ar
    20     4     5   ar
    21     5     6    1
    22     5     7   ar
    23     7     8   ar
    24    24    20   ar
    25    14     9   ar
    26     8     2   ar
