@<TRIPOS>MOLECULE
*****
 48 54 0 0 0
SMALL
GASTEIGER

@<TRIPOS>ATOM
      1 C          63.5290   86.5075   15.5044 C.3     1  UNL1        0.1239
      2 C          63.0792   85.6094   16.6184 C.3     1  UNL1        0.0374
      3 C          63.0392   84.2047   16.0939 C.3     1  UNL1        0.0739
      4 N          63.4642   84.2347   14.6557 N.3     1  UNL1       -0.2638
      5 C          63.7669   85.6578   14.2914 C.3     1  UNL1        0.0913
      6 C          63.9473   87.6325   14.6046 C.2     1  UNL1        0.2357
      7 O          65.3831   88.0644   14.5618 O.2     1  UNL1       -0.2739
      8 N          62.9297   88.3255   13.7477 N.am    1  UNL1       -0.2864
      9 H          61.9874   88.0420   13.7758 H       1  UNL1        0.1546
     10 C          63.3480   89.4504   12.8479 C.2     1  UNL1        0.0320
     11 C          62.6139   89.6958   11.5631 C.2     1  UNL1        0.0122
     12 C          63.0322   90.8207   10.6634 C.2     1  UNL1        0.0216
     13 C          64.1847   91.7003   11.0485 C.2     1  UNL1        0.1008
     14 N          64.8203   92.8768   10.3688 N.2     1  UNL1       -0.1483
     15 N          65.9472   93.3585   11.2336 N.2     1  UNL1       -0.1483
     16 C          66.0081   92.4797   12.4477 C.2     1  UNL1        0.1007
     17 C          64.9188   91.4549   12.3333 C.2     1  UNL1        0.0223
     18 C          64.5005   90.3300   13.2330 C.3     1  UNL1        0.0706
     19 C          66.9865   92.6040   13.5779 C.ar    1  UNL1        0.0193
     20 C          66.6065   93.3544   14.8198 C.ar    1  UNL1        0.0038
     21 C          67.5849   93.4786   15.9500 C.ar    1  UNL1        0.0297
     22 C          68.9433   92.8524   15.8383 C.ar    1  UNL1        0.1401
     23 F          69.9217   92.9767   16.9684 F       1  UNL1       -0.2042
     24 C          69.3233   92.1020   14.5963 C.ar    1  UNL1        0.0297
     25 C          68.3449   91.9777   13.4662 C.ar    1  UNL1        0.0038
     26 C          62.7442   87.2894   17.8544 C.3     1  UNL1        0.0696
     27 S          63.3785   87.5924   16.5293 S.3     1  UNL1       -0.1309
     28 C          63.5683   83.0495   13.7422 C.3     1  UNL1        0.1587
     29 C          63.9653   83.2402   12.3084 C.2     1  UNL1        0.2423
     30 O          65.1211   82.4704   11.7414 O.2     1  UNL1       -0.2733
     31 N          63.2066   84.2008   11.4415 N.am    1  UNL1       -0.2740
     32 C          63.6036   84.3916   10.0076 C.3     1  UNL1        0.1196
     33 C          62.8448   85.3522    9.1407 C.2     1  UNL1       -0.0089
     34 C          61.6890   86.1220    9.7075 C.2     1  UNL1       -0.0231
     35 C          61.2920   85.9312   11.1414 C.3     1  UNL1        0.0476
     36 C          62.0508   84.9707   12.0083 C.3     1  UNL1        0.0984
     37 C          60.9303   87.0826    8.8406 C.ar    1  UNL1       -0.0042
     38 C          60.1521   86.5759    7.6626 C.ar    1  UNL1       -0.0002
     39 C          59.3933   87.5365    6.7957 C.ar    1  UNL1        0.0030
     40 C          59.4127   89.0037    7.1068 C.ar    1  UNL1        0.0358
     41 C          60.1910   89.5104    8.2848 C.ar    1  UNL1        0.0030
     42 C          60.9497   88.5498    9.1517 C.ar    1  UNL1       -0.0002
     43 C          58.6540   89.9643    6.2399 C.ar    1  UNL1        0.1623
     44 N          57.1551   89.9191    6.2039 N.ar    1  UNL1       -0.2250
     45 C          56.3962   90.8797    5.3370 C.ar    1  UNL1        0.1022
     46 C          57.1364   91.8855    4.5061 C.ar    1  UNL1        0.0414
     47 C          58.6352   91.9308    4.5420 C.ar    1  UNL1        0.1022
     48 N          59.3940   90.9702    5.4090 N.ar    1  UNL1       -0.2250
@<TRIPOS>BOND
     1    26    27    1
     2     1    27    1
     3     1     6    1
     4     6     7    2
     5     6     8   am
     6     8    10    1
     7    10    11    2
     8    11    12    1
     9    12    13    2
    10    13    14    1
    11    14    15    2
    12    15    16    1
    13    16    19    1
    14    19    20   ar
    15    20    21   ar
    16    21    22   ar
    17    22    23    1
    18    22    24   ar
    19    24    25   ar
    20    16    17    2
    21    17    18    1
    22     1     2    1
    23     2     3    1
    24     3     4    1
    25     4    28    1
    26    28    29    1
    27    29    30    2
    28    29    31   am
    29    31    32    1
    30    32    33    1
    31    33    34    2
    32    34    37    1
    33    37    38   ar
    34    38    39   ar
    35    39    40   ar
    36    40    43    1
    37    43    44   ar
    38    44    45   ar
    39    45    46   ar
    40    46    47   ar
    41    47    48   ar
    42    40    41   ar
    43    41    42   ar
    44    34    35    1
    45    35    36    1
    46     4     5    1
    47     5     1    1
    48    18    10    1
    49    36    31    1
    50    17    13    1
    51    42    37   ar
    52    25    19   ar
    53    48    43   ar
    54     8     9    1
@<TRIPOS>MOLECULE
*****
 48 54 0 0 0
SMALL
GASTEIGER

@<TRIPOS>ATOM
      1 C          59.9385   88.5764    8.1669 C.3     1  UNL1        0.1239
      2 C          59.0359   88.0361    7.0977 C.3     1  UNL1        0.0374
      3 C          58.7928   89.1296    6.1001 C.3     1  UNL1        0.0739
      4 N          59.5453   90.3456    6.5528 N.3     1  UNL1       -0.2638
      5 C          60.2534   90.0038    7.8301 C.3     1  UNL1        0.0913
      6 C          60.8137   88.8294    9.3587 C.2     1  UNL1        0.2357
      7 O          60.9755   87.7703   10.4086 O.2     1  UNL1       -0.2739
      8 N          61.5270   90.1412    9.5005 N.am    1  UNL1       -0.2864
      9 H          61.4208   90.8363    8.8114 H       1  UNL1        0.1546
     10 C          62.4021   90.3942   10.6923 C.2     1  UNL1        0.0320
     11 C          62.1486   89.6635   11.9775 C.2     1  UNL1        0.0122
     12 C          63.0237   89.9164   13.1692 C.2     1  UNL1        0.0216
     13 C          64.1523   90.9000   13.0756 C.2     1  UNL1        0.1008
     14 N          65.1742   91.3532   14.0759 N.2     1  UNL1       -0.1483
     15 N          66.0593   92.3640   13.4088 N.2     1  UNL1       -0.1483
     16 C          65.5843   92.5355   11.9963 C.2     1  UNL1        0.1007
     17 C          64.4058   91.6307   11.7904 C.2     1  UNL1        0.0223
     18 C          63.5307   91.3778   10.5988 C.3     1  UNL1        0.0706
     19 C          66.1829   93.4511   10.9699 C.ar    1  UNL1        0.0193
     20 C          65.7207   94.8749   10.8744 C.ar    1  UNL1        0.0038
     21 C          66.3192   95.7904    9.8480 C.ar    1  UNL1        0.0297
     22 C          67.3799   95.2822    8.9171 C.ar    1  UNL1        0.1401
     23 F          67.9785   96.1978    7.8907 F       1  UNL1       -0.2042
     24 C          67.8421   93.8584    9.0127 C.ar    1  UNL1        0.0297
     25 C          67.2436   92.9429   10.0391 C.ar    1  UNL1        0.0038
     26 C          60.0766   85.9955    7.9034 C.3     1  UNL1        0.0696
     27 S          59.8067   87.2019    8.7529 S.3     1  UNL1       -0.1309
     28 C          59.5830   91.6709    5.8513 C.3     1  UNL1        0.1587
     29 C          58.8980   91.8385    4.5274 C.2     1  UNL1        0.2423
     30 O          57.4196   91.6120    4.4139 O.2     1  UNL1       -0.2733
     31 N          59.6915   92.2326    3.3169 N.am    1  UNL1       -0.2740
     32 C          59.0064   92.4001    1.9930 C.3     1  UNL1        0.1196
     33 C          59.7999   92.7942    0.7826 C.2     1  UNL1       -0.0089
     34 C          61.2783   93.0207    0.8960 C.2     1  UNL1       -0.0231
     35 C          61.9633   92.8532    2.2199 C.3     1  UNL1        0.0476
     36 C          61.1699   92.4591    3.4303 C.3     1  UNL1        0.0984
     37 C          62.0717   93.4148   -0.3145 C.ar    1  UNL1       -0.0042
     38 C          63.4332   94.0234   -0.1533 C.ar    1  UNL1       -0.0002
     39 C          64.2266   94.4175   -1.3638 C.ar    1  UNL1        0.0030
     40 C          63.6586   94.2030   -2.7353 C.ar    1  UNL1        0.0358
     41 C          62.2971   93.5943   -2.8965 C.ar    1  UNL1        0.0030
     42 C          61.5037   93.2003   -1.6861 C.ar    1  UNL1       -0.0002
     43 C          64.4520   94.5970   -3.9458 C.ar    1  UNL1        0.1623
     44 N          64.7333   93.5879   -5.0193 N.ar    1  UNL1       -0.2250
     45 C          65.5268   93.9819   -6.2298 C.ar    1  UNL1        0.1022
     46 C          66.0389   95.3851   -6.3667 C.ar    1  UNL1        0.0414
     47 C          65.7576   96.3943   -5.2932 C.ar    1  UNL1        0.1022
     48 N          64.9641   96.0002   -4.0827 N.ar    1  UNL1       -0.2250
@<TRIPOS>BOND
     1    26    27    1
     2     1    27    1
     3     1     6    1
     4     6     7    2
     5     6     8   am
     6     8    10    1
     7    10    11    2
     8    11    12    1
     9    12    13    2
    10    13    14    1
    11    14    15    2
    12    15    16    1
    13    16    19    1
    14    19    20   ar
    15    20    21   ar
    16    21    22   ar
    17    22    23    1
    18    22    24   ar
    19    24    25   ar
    20    16    17    2
    21    17    18    1
    22     1     2    1
    23     2     3    1
    24     3     4    1
    25     4    28    1
    26    28    29    1
    27    29    30    2
    28    29    31   am
    29    31    32    1
    30    32    33    1
    31    33    34    2
    32    34    37    1
    33    37    38   ar
    34    38    39   ar
    35    39    40   ar
    36    40    43    1
    37    43    44   ar
    38    44    45   ar
    39    45    46   ar
    40    46    47   ar
    41    47    48   ar
    42    40    41   ar
    43    41    42   ar
    44    34    35    1
    45    35    36    1
    46     4     5    1
    47     5     1    1
    48    18    10    1
    49    36    31    1
    50    17    13    1
    51    42    37   ar
    52    25    19   ar
    53    48    43   ar
    54     8     9    1
@<TRIPOS>MOLECULE
*****
 48 54 0 0 0
SMALL
GASTEIGER

@<TRIPOS>ATOM
      1 C          65.9226   92.5511   11.9066 C.3     1  UNL1        0.1239
      2 C          67.2772   93.1449   12.1567 C.3     1  UNL1        0.0374
      3 C          67.4247   93.3567   13.6343 C.3     1  UNL1        0.0739
      4 N          66.1614   92.8938   14.2973 N.3     1  UNL1       -0.2638
      5 C          65.2331   92.3959   13.2296 C.3     1  UNL1        0.0913
      6 C          64.6569   91.9641   11.3557 C.2     1  UNL1        0.2357
      7 O          64.1231   92.4369   10.0361 O.2     1  UNL1       -0.2739
      8 N          63.9250   90.9043   12.1245 N.am    1  UNL1       -0.2864
      9 H          64.2754   90.5940   12.9907 H       1  UNL1        0.1546
     10 C          62.6593   90.3173   11.5737 C.2     1  UNL1        0.0320
     11 C          61.4219   91.1595   11.4770 C.2     1  UNL1        0.0122
     12 C          60.1562   90.5725   10.9262 C.2     1  UNL1        0.0216
     13 C          60.1280   89.1432   10.4720 C.2     1  UNL1        0.1008
     14 N          59.0350   88.2963    9.8902 N.2     1  UNL1       -0.1483
     15 N          59.5970   86.9307    9.6273 N.2     1  UNL1       -0.1483
     16 C          61.0372   86.9335   10.0466 C.2     1  UNL1        0.1007
     17 C          61.3654   88.3009   10.5686 C.2     1  UNL1        0.0223
     18 C          62.6310   88.8880   11.1194 C.3     1  UNL1        0.0706
     19 C          61.9833   85.7728    9.9592 C.ar    1  UNL1        0.0193
     20 C          62.7611   85.5324    8.6993 C.ar    1  UNL1        0.0038
     21 C          63.7071   84.3716    8.6119 C.ar    1  UNL1        0.0297
     22 C          63.8754   83.4512    9.7843 C.ar    1  UNL1        0.1401
     23 F          64.8214   82.2904    9.6969 F       1  UNL1       -0.2042
     24 C          63.0976   83.6916   11.0441 C.ar    1  UNL1        0.0297
     25 C          62.1515   84.8523   11.1315 C.ar    1  UNL1        0.0038
     26 C          67.7804   92.3304   10.1039 C.3     1  UNL1        0.0696
     27 S          66.3476   92.5836   10.4684 S.3     1  UNL1       -0.1309
     28 C          65.8765   92.9236   15.7697 C.3     1  UNL1        0.1587
     29 C          64.6281   92.2871   16.3051 C.2     1  UNL1        0.2423
     30 O          63.6654   93.0958   17.1231 O.2     1  UNL1       -0.2733
     31 N          64.3425   90.8420   16.0224 N.am    1  UNL1       -0.2740
     32 C          63.0942   90.2055   16.5578 C.3     1  UNL1        0.1196
     33 C          62.8085   88.7603   16.2751 C.2     1  UNL1       -0.0089
     34 C          63.7712   87.9516   15.4571 C.2     1  UNL1       -0.0231
     35 C          65.0195   88.5880   14.9217 C.3     1  UNL1        0.0476
     36 C          65.3051   90.0332   15.2044 C.3     1  UNL1        0.0984
     37 C          63.4855   86.5064   15.1744 C.ar    1  UNL1       -0.0042
     38 C          64.2978   85.7673   14.1527 C.ar    1  UNL1       -0.0002
     39 C          64.0122   84.3221   13.8700 C.ar    1  UNL1        0.0030
     40 C          62.9143   83.6161   14.6090 C.ar    1  UNL1        0.0358
     41 C          62.1020   84.3553   15.6307 C.ar    1  UNL1        0.0030
     42 C          62.3876   85.8004   15.9134 C.ar    1  UNL1       -0.0002
     43 C          62.6286   82.1710   14.3263 C.ar    1  UNL1        0.1623
     44 N          61.2145   81.6707   14.3329 N.ar    1  UNL1       -0.2250
     45 C          60.9288   80.2255   14.0503 C.ar    1  UNL1        0.1022
     46 C          62.0573   79.2806   13.7610 C.ar    1  UNL1        0.0414
     47 C          63.4714   79.7809   13.7543 C.ar    1  UNL1        0.1022
     48 N          63.7570   81.2260   14.0370 N.ar    1  UNL1       -0.2250
@<TRIPOS>BOND
     1    26    27    1
     2     1    27    1
     3     1     6    1
     4     6     7    2
     5     6     8   am
     6     8    10    1
     7    10    11    2
     8    11    12    1
     9    12    13    2
    10    13    14    1
    11    14    15    2
    12    15    16    1
    13    16    19    1
    14    19    20   ar
    15    20    21   ar
    16    21    22   ar
    17    22    23    1
    18    22    24   ar
    19    24    25   ar
    20    16    17    2
    21    17    18    1
    22     1     2    1
    23     2     3    1
    24     3     4    1
    25     4    28    1
    26    28    29    1
    27    29    30    2
    28    29    31   am
    29    31    32    1
    30    32    33    1
    31    33    34    2
    32    34    37    1
    33    37    38   ar
    34    38    39   ar
    35    39    40   ar
    36    40    43    1
    37    43    44   ar
    38    44    45   ar
    39    45    46   ar
    40    46    47   ar
    41    47    48   ar
    42    40    41   ar
    43    41    42   ar
    44    34    35    1
    45    35    36    1
    46     4     5    1
    47     5     1    1
    48    18    10    1
    49    36    31    1
    50    17    13    1
    51    42    37   ar
    52    25    19   ar
    53    48    43   ar
    54     8     9    1
@<TRIPOS>MOLECULE
*****
 48 54 0 0 0
SMALL
GASTEIGER

@<TRIPOS>ATOM
      1 C          65.0414   92.4978   11.9069 C.3     1  UNL1        0.1239
      2 C          66.1505   93.5058   11.8447 C.3     1  UNL1        0.0374
      3 C          66.5980   93.7896   13.2480 C.3     1  UNL1        0.0739
      4 N          65.7654   92.9571   14.1773 N.3     1  UNL1       -0.2638
      5 C          64.8034   92.1587   13.3485 C.3     1  UNL1        0.0913
      6 C          63.9336   91.5179   11.6566 C.2     1  UNL1        0.2357
      7 O          62.9928   91.1501   12.7656 O.2     1  UNL1       -0.2739
      8 N          63.7665   90.9058   10.2975 N.am    1  UNL1       -0.2864
      9 H          64.3839   91.1471    9.5696 H       1  UNL1        0.1546
     10 C          62.6587   89.9258   10.0472 C.2     1  UNL1        0.0320
     11 C          62.4543   88.7703   10.9815 C.2     1  UNL1        0.0122
     12 C          61.3465   87.7904   10.7312 C.2     1  UNL1        0.0216
     13 C          60.4431   87.9661    9.5467 C.2     1  UNL1        0.1008
     14 N          59.2756   87.1674    9.0476 N.2     1  UNL1       -0.1483
     15 N          58.7585   87.8294    7.8049 N.2     1  UNL1       -0.1483
     16 C          59.6064   89.0372    7.5360 C.2     1  UNL1        0.1007
     17 C          60.6475   89.1217    8.6125 C.2     1  UNL1        0.0223
     18 C          61.7553   90.1015    8.8627 C.3     1  UNL1        0.0706
     19 C          59.4420   89.9928    6.3915 C.ar    1  UNL1        0.0193
     20 C          60.6430   90.4503    5.6181 C.ar    1  UNL1        0.0038
     21 C          60.4786   91.4059    4.4736 C.ar    1  UNL1        0.0297
     22 C          59.1132   91.9040    4.1025 C.ar    1  UNL1        0.1401
     23 F          58.9488   92.8595    2.9580 F       1  UNL1       -0.2042
     24 C          57.9122   91.4464    4.8760 C.ar    1  UNL1        0.0297
     25 C          58.0766   90.4908    6.0205 C.ar    1  UNL1        0.0038
     26 C          66.1768   93.3441    9.7287 C.3     1  UNL1        0.0696
     27 S          65.0477   92.6320   10.4129 S.3     1  UNL1       -0.1309
     28 C          65.8756   92.9281   15.6730 C.3     1  UNL1        0.1587
     29 C          64.8710   92.1648   16.4844 C.2     1  UNL1        0.2423
     30 O          64.2098   92.8147   17.6635 O.2     1  UNL1       -0.2733
     31 N          64.5278   90.7517   16.1166 N.am    1  UNL1       -0.2740
     32 C          63.5232   89.9884   16.9280 C.3     1  UNL1        0.1196
     33 C          63.1799   88.5753   16.5602 C.2     1  UNL1       -0.0089
     34 C          63.8411   87.9254   15.3811 C.2     1  UNL1       -0.0231
     35 C          64.8457   88.6887   14.5697 C.3     1  UNL1        0.0476
     36 C          65.1890   90.1018   14.9375 C.3     1  UNL1        0.0984
     37 C          63.4979   86.5123   15.0133 C.ar    1  UNL1       -0.0042
     38 C          63.5377   86.0802   13.5774 C.ar    1  UNL1       -0.0002
     39 C          63.1944   84.6671   13.2097 C.ar    1  UNL1        0.0030
     40 C          62.8113   83.6861   14.2778 C.ar    1  UNL1        0.0358
     41 C          62.7715   84.1182   15.7136 C.ar    1  UNL1        0.0030
     42 C          63.1148   85.5313   16.0814 C.ar    1  UNL1       -0.0002
     43 C          62.4680   82.2730   13.9100 C.ar    1  UNL1        0.1623
     44 N          61.2753   81.6057   14.5282 N.ar    1  UNL1       -0.2250
     45 C          60.9319   80.1925   14.1604 C.ar    1  UNL1        0.1022
     46 C          61.7814   79.4467   13.1745 C.ar    1  UNL1        0.0414
     47 C          62.9741   80.1140   12.5563 C.ar    1  UNL1        0.1022
     48 N          63.3174   81.5271   12.9240 N.ar    1  UNL1       -0.2250
@<TRIPOS>BOND
     1    26    27    1
     2     1    27    1
     3     1     6    1
     4     6     7    2
     5     6     8   am
     6     8    10    1
     7    10    11    2
     8    11    12    1
     9    12    13    2
    10    13    14    1
    11    14    15    2
    12    15    16    1
    13    16    19    1
    14    19    20   ar
    15    20    21   ar
    16    21    22   ar
    17    22    23    1
    18    22    24   ar
    19    24    25   ar
    20    16    17    2
    21    17    18    1
    22     1     2    1
    23     2     3    1
    24     3     4    1
    25     4    28    1
    26    28    29    1
    27    29    30    2
    28    29    31   am
    29    31    32    1
    30    32    33    1
    31    33    34    2
    32    34    37    1
    33    37    38   ar
    34    38    39   ar
    35    39    40   ar
    36    40    43    1
    37    43    44   ar
    38    44    45   ar
    39    45    46   ar
    40    46    47   ar
    41    47    48   ar
    42    40    41   ar
    43    41    42   ar
    44    34    35    1
    45    35    36    1
    46     4     5    1
    47     5     1    1
    48    18    10    1
    49    36    31    1
    50    17    13    1
    51    42    37   ar
    52    25    19   ar
    53    48    43   ar
    54     8     9    1
@<TRIPOS>MOLECULE
*****
 48 54 0 0 0
SMALL
GASTEIGER

@<TRIPOS>ATOM
      1 C          60.5911   86.7827    7.8902 C.3     1  UNL1        0.1239
      2 C          59.7614   86.5335    6.6657 C.3     1  UNL1        0.0374
      3 C          59.2110   87.8499    6.2030 C.3     1  UNL1        0.0739
      4 N          59.7006   88.9126    7.1416 N.3     1  UNL1       -0.2638
      5 C          60.5535   88.2531    8.1843 C.3     1  UNL1        0.0913
      6 C          61.4670   86.7218    9.1065 C.2     1  UNL1        0.2357
      7 O          62.4270   85.5828    9.2831 O.2     1  UNL1       -0.2739
      8 N          61.3829   87.7998   10.1461 N.am    1  UNL1       -0.2864
      9 H          60.7528   88.5473   10.0302 H       1  UNL1        0.1546
     10 C          62.2588   87.7389   11.3623 C.2     1  UNL1        0.0320
     11 C          62.8582   88.9963   11.9186 C.2     1  UNL1        0.0122
     12 C          63.7341   88.9353   13.1348 C.2     1  UNL1        0.0216
     13 C          64.0105   87.6169   13.7947 C.2     1  UNL1        0.1008
     14 N          64.8285   87.2481   14.9968 N.2     1  UNL1       -0.1483
     15 N          64.7345   85.7628   15.1834 N.2     1  UNL1       -0.1483
     16 C          63.8585   85.2136   14.0966 C.2     1  UNL1        0.1007
     17 C          63.4111   86.3595   13.2384 C.2     1  UNL1        0.0223
     18 C          62.5352   86.4205   12.0222 C.3     1  UNL1        0.0706
     19 C          63.4940   83.7716   13.9022 C.ar    1  UNL1        0.0193
     20 C          62.3201   83.1897   14.6326 C.ar    1  UNL1        0.0038
     21 C          61.9555   81.7478   14.4382 C.ar    1  UNL1        0.0297
     22 C          62.7648   80.8876   13.5135 C.ar    1  UNL1        0.1401
     23 F          62.4003   79.4456   13.3191 F       1  UNL1       -0.2042
     24 C          63.9387   81.4695   12.7832 C.ar    1  UNL1        0.0297
     25 C          64.3033   82.9114   12.9775 C.ar    1  UNL1        0.0038
     26 C          61.2494   84.6404    6.5761 C.3     1  UNL1        0.0696
     27 S          60.8119   85.2996    7.8504 S.3     1  UNL1       -0.1309
     28 C          59.3914   90.3777    7.0530 C.3     1  UNL1        0.1587
     29 C          58.6624   90.9195    5.8592 C.2     1  UNL1        0.2423
     30 O          57.1659   90.8408    5.7950 O.2     1  UNL1       -0.2733
     31 N          59.4299   91.5400    4.7297 N.am    1  UNL1       -0.2740
     32 C          58.7009   92.0819    3.5360 C.3     1  UNL1        0.1196
     33 C          59.4685   92.7024    2.4064 C.2     1  UNL1       -0.0089
     34 C          60.9650   92.7811    2.4706 C.2     1  UNL1       -0.0231
     35 C          61.6940   92.2393    3.6643 C.3     1  UNL1        0.0476
     36 C          60.9265   91.6188    4.7938 C.3     1  UNL1        0.0984
     37 C          61.7326   93.4016    1.3410 C.ar    1  UNL1       -0.0042
     38 C          61.9543   92.6318    0.0729 C.ar    1  UNL1       -0.0002
     39 C          62.7219   93.2524   -1.0567 C.ar    1  UNL1        0.0030
     40 C          63.2676   94.6426   -0.9180 C.ar    1  UNL1        0.0358
     41 C          63.0459   95.4124    0.3502 C.ar    1  UNL1        0.0030
     42 C          62.2783   94.7919    1.4797 C.ar    1  UNL1       -0.0002
     43 C          64.0352   95.2631   -2.0475 C.ar    1  UNL1        0.1623
     44 N          65.1977   96.1657   -1.7577 N.ar    1  UNL1       -0.2250
     45 C          65.9653   96.7863   -2.8873 C.ar    1  UNL1        0.1022
     46 C          65.5703   96.5042   -4.3066 C.ar    1  UNL1        0.0414
     47 C          64.4078   95.6016   -4.5964 C.ar    1  UNL1        0.1022
     48 N          63.6403   94.9811   -3.4668 N.ar    1  UNL1       -0.2250
@<TRIPOS>BOND
     1    26    27    1
     2     1    27    1
     3     1     6    1
     4     6     7    2
     5     6     8   am
     6     8    10    1
     7    10    11    2
     8    11    12    1
     9    12    13    2
    10    13    14    1
    11    14    15    2
    12    15    16    1
    13    16    19    1
    14    19    20   ar
    15    20    21   ar
    16    21    22   ar
    17    22    23    1
    18    22    24   ar
    19    24    25   ar
    20    16    17    2
    21    17    18    1
    22     1     2    1
    23     2     3    1
    24     3     4    1
    25     4    28    1
    26    28    29    1
    27    29    30    2
    28    29    31   am
    29    31    32    1
    30    32    33    1
    31    33    34    2
    32    34    37    1
    33    37    38   ar
    34    38    39   ar
    35    39    40   ar
    36    40    43    1
    37    43    44   ar
    38    44    45   ar
    39    45    46   ar
    40    46    47   ar
    41    47    48   ar
    42    40    41   ar
    43    41    42   ar
    44    34    35    1
    45    35    36    1
    46     4     5    1
    47     5     1    1
    48    18    10    1
    49    36    31    1
    50    17    13    1
    51    42    37   ar
    52    25    19   ar
    53    48    43   ar
    54     8     9    1
