@<TRIPOS>MOLECULE
*****
 65 70 0 0 0
SMALL
GASTEIGER

@<TRIPOS>ATOM
      1 C          63.4576   90.6016   12.2287 C.3     1  UNL1        0.1530
      2 C          62.1733   89.8497   12.0414 C.3     1  UNL1        0.0553
      3 C          60.8906   89.2829   11.5092 C.ar    1  UNL1       -0.0199
      4 C          59.6921   88.3972   11.6798 C.ar    1  UNL1       -0.0029
      5 C          58.6689   88.3011   10.5872 C.ar    1  UNL1        0.0143
      6 C          58.8441   89.0908    9.3240 C.ar    1  UNL1        0.0503
      7 C          60.0426   89.9765    9.1534 C.ar    1  UNL1        0.0143
      8 C          61.0658   90.0726   10.2459 C.ar    1  UNL1       -0.0029
      9 N          57.4010   89.4017    6.9458 N.am    1  UNL1       -0.2825
     10 C          57.2382   90.0177    5.5878 C.2     1  UNL1        0.2467
     11 O          55.9436   89.3526    5.2250 O.2     1  UNL1       -0.2729
     12 C          57.4134   90.8074    4.3246 C.3     1  UNL1        0.1815
     13 N          57.9147   91.7169    3.2422 N.pl3   1  UNL1       -0.2744
     14 C          58.7078   92.6842    2.4144 C.2     1  UNL1        0.0822
     15 C          59.7387   93.6434    1.8975 C.2     1  UNL1        0.0822
     16 N          60.9371   94.5291    1.7269 N.pl3   1  UNL1       -0.2744
     17 C          60.1440   93.5618    2.5547 C.2     1  UNL1        0.0822
     18 C          59.1132   92.6026    3.0716 C.2     1  UNL1        0.0822
     19 C          62.2215   95.2810    1.9141 C.3     1  UNL1        0.1815
     20 C          63.5042   95.8478    2.4464 C.2     1  UNL1        0.2467
     21 O          63.8454   96.7048    1.2634 O.2     1  UNL1       -0.2729
     22 N          64.6979   96.1910    3.2874 N.am    1  UNL1       -0.2825
     23 C          65.7212   96.2871    4.3800 C.ar    1  UNL1        0.0503
     24 C          66.5043   96.1295    5.6497 C.ar    1  UNL1        0.0143
     25 C          66.9939   95.7291    7.0097 C.ar    1  UNL1       -0.0029
     26 C          67.1567   95.1131    8.3677 C.ar    1  UNL1       -0.0202
     27 C          66.3735   95.2706    7.0981 C.ar    1  UNL1       -0.0029
     28 C          65.8839   95.6711    5.7380 C.ar    1  UNL1        0.0143
     29 C          66.9814   94.3234    9.6309 C.3     1  UNL1        0.0530
     30 C          66.4801   93.4139   10.7133 C.3     1  UNL1        0.1553
     31 C          65.6870   92.4466   11.5411 C.2     1  UNL1        0.2390
     32 O          66.5981   92.4156   12.7325 O.2     1  UNL1       -0.2736
     33 N          64.6562   91.4874   12.0580 N.am    1  UNL1       -0.2969
     34 H          56.6129   88.8216    7.0536 H       1  UNL1        0.1549
     35 H          65.1263   96.8122    2.6551 H       1  UNL1        0.1549
     36 H          65.0774   91.3027   12.9285 H       1  UNL1        0.1499
     37 N          62.6840   89.7418   14.5551 N.am    1  UNL1       -0.2991
     38 C          63.7867   90.0891   13.5994 C.2     1  UNL1        0.2409
     39 O          65.2186   89.9237   14.0144 O.2     1  UNL1       -0.2733
     40 H          61.7441   89.8504   14.2827 H       1  UNL1        0.1498
     41 C          63.0131   89.2293   15.9258 C.3     1  UNL1        0.1164
     42 C          63.6111   84.8197   16.5954 C.ar    1  UNL1        0.0813
     43 C          64.5443   85.5751   15.6961 C.ar    1  UNL1        0.0071
     44 C          64.3449   87.0449   15.4729 C.ar    1  UNL1       -0.0024
     45 C          63.2124   87.7594   16.1490 C.ar    1  UNL1       -0.0026
     46 C          62.2793   87.0040   17.0483 C.ar    1  UNL1       -0.0024
     47 C          62.4787   85.5342   17.2715 C.ar    1  UNL1        0.0071
     48 N          65.1742   82.7456   16.6613 N.2     1  UNL1       -0.0994
     49 C          63.8104   83.3499   16.8186 C.2     1  UNL1        0.3093
     50 N          62.6459   82.4843   17.1992 N.pl3   1  UNL1       -0.2466
     51 H          65.3051   81.7808   16.8078 H       1  UNL1        0.3633
     52 H          62.7767   81.5196   17.3457 H       1  UNL1        0.2884
     53 H          61.7507   82.8809   17.3024 H       1  UNL1        0.2884
     54 N          67.5981   93.6354   11.6885 N.3     1  UNL1       -0.1753
     55 H          68.0393   94.5194   11.4348 H       1  UNL1        0.1489
     56 S          67.3088   93.7022   13.1588 S.O2    1  UNL1        0.0454
     57 O          66.2487   94.7323   12.9034 O.2     1  UNL1       -0.1572
     58 O          68.3688   92.6721   13.4142 O.2     1  UNL1       -0.1572
     59 C          67.0194   93.7690   14.6291 C.3     1  UNL1        0.1952
     60 C          68.1188   93.5314   15.6216 C.ar    1  UNL1        0.0029
     61 C          68.5653   92.1321   15.9255 C.ar    1  UNL1       -0.0025
     62 C          69.6646   91.8945   16.9179 C.ar    1  UNL1       -0.0003
     63 C          70.3176   93.0563   17.6064 C.ar    1  UNL1       -0.0000
     64 C          69.8710   94.4557   17.3025 C.ar    1  UNL1       -0.0003
     65 C          68.7716   94.6932   16.3100 C.ar    1  UNL1       -0.0025
@<TRIPOS>BOND
     1    48    49    2
     2    49    50    1
     3    49    42    1
     4    42    43   ar
     5    43    44   ar
     6    44    45   ar
     7    45    41    1
     8    41    37    1
     9    37    38   am
    10    38    39    2
    11     1    38    1
    12     1     2    1
    13     2     3    1
    14     3     4   ar
    15     4     5   ar
    16     5     6   ar
    17     6     7   ar
    18     7     8   ar
    19     6     9    1
    20     9    10   am
    21    10    11    2
    22    10    12    1
    23    12    13    1
    24    13    14    1
    25    14    15    2
    26    15    16    1
    27    16    17    1
    28    17    18    2
    29    16    19    1
    30    19    20    1
    31    20    21    2
    32    20    22   am
    33    22    23    1
    34    23    24   ar
    35    24    25   ar
    36    25    26   ar
    37    26    27   ar
    38    27    28   ar
    39    26    29    1
    40    29    30    1
    41    30    54    1
    42    54    56    1
    43    56    57    2
    44    56    58    2
    45    56    59    1
    46    59    60    1
    47    60    61   ar
    48    61    62   ar
    49    62    63   ar
    50    63    64   ar
    51    64    65   ar
    52    30    31    1
    53    31    32    2
    54    31    33   am
    55    45    46   ar
    56    46    47   ar
    57    47    42   ar
    58    33     1    1
    59     8     3   ar
    60    18    13    1
    61    28    23   ar
    62    65    60   ar
    63    48    51    1
    64    50    52    1
    65    50    53    1
    66    37    40    1
    67     9    34    1
    68    22    35    1
    69    54    55    1
    70    33    36    1
@<TRIPOS>MOLECULE
*****
 65 70 0 0 0
SMALL
GASTEIGER

@<TRIPOS>ATOM
      1 C          66.2361   93.6765   12.2423 C.3     1  UNL1        0.1530
      2 C          66.9221   94.6041   11.2836 C.3     1  UNL1        0.0553
      3 C          67.3331   95.3990   10.0798 C.ar    1  UNL1       -0.0199
      4 C          68.2473   96.3960    9.4316 C.ar    1  UNL1       -0.0029
      5 C          68.0448   96.7759    7.9948 C.ar    1  UNL1        0.0143
      6 C          66.9280   96.1589    7.2061 C.ar    1  UNL1        0.0503
      7 C          66.0137   95.1620    7.8542 C.ar    1  UNL1        0.0143
      8 C          66.2163   94.7820    9.2911 C.ar    1  UNL1       -0.0029
      9 N          65.9777   96.3761    4.5822 N.am    1  UNL1       -0.2825
     10 C          65.0053   95.9859    3.5087 C.2     1  UNL1        0.2467
     11 O          65.5585   96.8546    2.4182 O.2     1  UNL1       -0.2729
     12 C          63.8885   95.3689    2.7200 C.3     1  UNL1        0.1815
     13 N          62.7033   94.5671    2.2698 N.pl3   1  UNL1       -0.2744
     14 C          61.5307   93.6353    2.1887 C.2     1  UNL1        0.0822
     15 C          60.4504   92.6369    2.4821 C.2     1  UNL1        0.0822
     16 N          59.5361   91.6400    3.1303 N.pl3   1  UNL1       -0.2744
     17 C          60.7088   92.5718    3.2114 C.2     1  UNL1        0.0822
     18 C          61.7891   93.5702    2.9179 C.2     1  UNL1        0.0822
     19 C          58.8501   90.7124    4.0890 C.3     1  UNL1        0.1815
     20 C          58.4392   89.9175    5.2928 C.2     1  UNL1        0.2467
     21 O          57.2783   89.2020    4.6679 O.2     1  UNL1       -0.2729
     22 N          58.3312   89.3093    6.6597 N.am    1  UNL1       -0.2825
     23 C          58.5337   88.9293    8.0966 C.ar    1  UNL1        0.0503
     24 C          59.0329   88.8035    9.5055 C.ar    1  UNL1        0.0143
     25 C          59.7945   88.9403   10.7904 C.ar    1  UNL1       -0.0029
     26 C          60.7669   89.3305   11.8639 C.ar    1  UNL1       -0.0202
     27 C          60.2678   89.4564   10.4549 C.ar    1  UNL1       -0.0029
     28 C          59.5061   89.3195    9.1700 C.ar    1  UNL1        0.0143
     29 C          61.8837   89.9475   12.6526 C.3     1  UNL1        0.0530
     30 C          63.0689   90.7493   13.1028 C.3     1  UNL1        0.1553
     31 C          64.2415   91.6811   13.1839 C.2     1  UNL1        0.2390
     32 O          64.5953   91.4260   14.6192 O.2     1  UNL1       -0.2736
     33 N          65.3218   92.6795   12.8905 N.am    1  UNL1       -0.2969
     34 H          66.5754   97.0300    4.1528 H       1  UNL1        0.1549
     35 H          57.5508   88.7355    6.4838 H       1  UNL1        0.1549
     36 H          65.7391   92.6831   13.7822 H       1  UNL1        0.1499
     37 N          66.6613   94.9016   14.4935 N.am    1  UNL1       -0.2991
     38 C          67.1106   93.9423   13.4317 C.2     1  UNL1        0.2409
     39 O          68.4344   93.2485   13.5591 O.2     1  UNL1       -0.2733
     40 H          65.7925   95.3569   14.4099 H       1  UNL1        0.1498
     41 C          67.5359   95.1673   15.6829 C.3     1  UNL1        0.1164
     42 C          70.6286   92.1426   16.9221 C.ar    1  UNL1        0.0813
     43 C          71.0117   93.5839   16.7605 C.ar    1  UNL1        0.0071
     44 C          69.9808   94.5920   16.3475 C.ar    1  UNL1       -0.0024
     45 C          68.5668   94.1591   16.0960 C.ar    1  UNL1       -0.0026
     46 C          68.1838   92.7179   16.2576 C.ar    1  UNL1       -0.0024
     47 C          69.2147   91.7096   16.6707 C.ar    1  UNL1        0.0071
     48 N          72.1680   90.1316   16.3423 N.2     1  UNL1       -0.0994
     49 C          71.6596   91.1343   17.3352 C.2     1  UNL1        0.3093
     50 N          72.1821   91.1289   18.7413 N.pl3   1  UNL1       -0.2466
     51 H          72.8446   89.4698   16.6134 H       1  UNL1        0.3633
     52 H          72.8587   90.4671   19.0125 H       1  UNL1        0.2884
     53 H          71.8484   91.7870   19.3930 H       1  UNL1        0.2884
     54 N          63.1165   90.2510   14.5168 N.3     1  UNL1       -0.1753
     55 H          62.1498   90.1457   14.8246 H       1  UNL1        0.1489
     56 S          63.8150   88.9621   14.8347 S.O2    1  UNL1        0.0454
     57 O          64.2320   88.8341   13.3994 O.2     1  UNL1       -0.1572
     58 O          63.3980   89.0901   16.2698 O.2     1  UNL1       -0.1572
     59 C          64.5134   87.6732   15.1525 C.3     1  UNL1        0.1952
     60 C          63.8308   86.3645   14.8854 C.ar    1  UNL1        0.0029
     61 C          63.6298   85.8978   13.4741 C.ar    1  UNL1       -0.0025
     62 C          62.9472   84.5891   13.2070 C.ar    1  UNL1       -0.0003
     63 C          62.4655   83.7471   14.3511 C.ar    1  UNL1       -0.0000
     64 C          62.6665   84.2139   15.7625 C.ar    1  UNL1       -0.0003
     65 C          63.3491   85.5226   16.0295 C.ar    1  UNL1       -0.0025
@<TRIPOS>BOND
     1    48    49    2
     2    49    50    1
     3    49    42    1
     4    42    43   ar
     5    43    44   ar
     6    44    45   ar
     7    45    41    1
     8    41    37    1
     9    37    38   am
    10    38    39    2
    11     1    38    1
    12     1     2    1
    13     2     3    1
    14     3     4   ar
    15     4     5   ar
    16     5     6   ar
    17     6     7   ar
    18     7     8   ar
    19     6     9    1
    20     9    10   am
    21    10    11    2
    22    10    12    1
    23    12    13    1
    24    13    14    1
    25    14    15    2
    26    15    16    1
    27    16    17    1
    28    17    18    2
    29    16    19    1
    30    19    20    1
    31    20    21    2
    32    20    22   am
    33    22    23    1
    34    23    24   ar
    35    24    25   ar
    36    25    26   ar
    37    26    27   ar
    38    27    28   ar
    39    26    29    1
    40    29    30    1
    41    30    54    1
    42    54    56    1
    43    56    57    2
    44    56    58    2
    45    56    59    1
    46    59    60    1
    47    60    61   ar
    48    61    62   ar
    49    62    63   ar
    50    63    64   ar
    51    64    65   ar
    52    30    31    1
    53    31    32    2
    54    31    33   am
    55    45    46   ar
    56    46    47   ar
    57    47    42   ar
    58    33     1    1
    59     8     3   ar
    60    18    13    1
    61    28    23   ar
    62    65    60   ar
    63    48    51    1
    64    50    52    1
    65    50    53    1
    66    37    40    1
    67     9    34    1
    68    22    35    1
    69    54    55    1
    70    33    36    1
