@<TRIPOS>MOLECULE
*****
 31 33 0 0 0
SMALL
GASTEIGER

@<TRIPOS>ATOM
      1 C          63.5969   89.2578   12.8155 C.ar    1  UNL1        0.0942
      2 C          63.1648   87.9910   12.1384 C.ar    1  UNL1        0.1078
      3 N          63.2502   86.6835   12.8685 N.ar    1  UNL1       -0.2119
      4 C          63.7677   86.6428   14.2759 C.ar    1  UNL1        0.2206
      5 N          64.1998   87.9096   14.9530 N.ar    1  UNL1       -0.2094
      6 C          64.1144   89.2171   14.2228 C.ar    1  UNL1        0.1613
      7 O          62.1978   91.0298   11.5301 O.2     1  UNL1       -0.2700
      8 C          63.5115   90.5652   12.0853 C.2     1  UNL1        0.2488
      9 N          64.7399   91.4082   11.9103 N.am    1  UNL1       -0.3008
     10 H          65.6022   91.1033   12.2747 H       1  UNL1        0.1497
     11 C          64.6545   92.7157   11.1801 C.3     1  UNL1        0.0898
     12 C          65.8919   93.3311   10.5968 C.3     1  UNL1        0.0246
     13 C          65.9826   94.8191   10.4305 C.3     1  UNL1        0.0338
     14 C          67.2199   95.4345    9.8472 C.3     1  UNL1        0.1422
     15 O          68.3665   94.5619    9.4300 O.3     1  UNL1       -0.3538
     16 C          68.2757   93.0739    9.5962 C.3     1  UNL1        0.1422
     17 C          67.0384   92.4585   10.1796 C.3     1  UNL1        0.0338
     18 C          64.5465   90.4839   14.8999 C.3     1  UNL1        0.4351
     19 F          64.9786   91.7507   15.5770 F       1  UNL1       -0.1644
     20 F          65.9579   90.2408   14.4540 F       1  UNL1       -0.1644
     21 F          63.1351   90.7270   15.3458 F       1  UNL1       -0.1644
     22 N          63.8531   85.3353   15.0061 N.pl3   1  UNL1       -0.2825
     23 H          64.0822   85.3202   15.9634 H       1  UNL1        0.1551
     24 C          63.5893   84.0509   14.2776 C.ar    1  UNL1        0.0514
     25 C          64.5105   83.6086   13.1795 C.ar    1  UNL1        0.0156
     26 C          64.2467   82.3241   12.4511 C.ar    1  UNL1        0.0135
     27 C          63.0618   81.4819   12.8208 C.ar    1  UNL1        0.0683
     28 CL         62.7981   80.1975   12.0924 Cl      1  UNL1       -0.0814
     29 C          62.1407   81.9242   13.9189 C.ar    1  UNL1        0.0694
     30 CL         60.9557   81.0820   14.2886 Cl      1  UNL1       -0.0813
     31 C          62.4044   83.2087   14.6473 C.ar    1  UNL1        0.0269
@<TRIPOS>BOND
     1     7     8    2
     2     8     9   am
     3     9    11    1
     4    11    12    1
     5    12    13    1
     6    13    14    1
     7    14    15    1
     8    15    16    1
     9    16    17    1
    10     8     1    1
    11     1     2   ar
    12     2     3   ar
    13     3     4   ar
    14     4    22    1
    15    22    24    1
    16    24    25   ar
    17    25    26   ar
    18    26    27   ar
    19    27    28    1
    20    27    29   ar
    21    29    30    1
    22    29    31   ar
    23     4     5   ar
    24     5     6   ar
    25     6    18    1
    26    18    19    1
    27    18    20    1
    28    18    21    1
    29    17    12    1
    30     6     1   ar
    31    31    24   ar
    32     9    10    1
    33    22    23    1
@<TRIPOS>MOLECULE
*****
 31 33 0 0 0
SMALL
GASTEIGER

@<TRIPOS>ATOM
      1 C          63.3793   89.9292   12.3068 C.ar    1  UNL1        0.0942
      2 C          63.6252   90.8450   11.1445 C.ar    1  UNL1        0.1078
      3 N          64.4912   92.0578   11.3154 N.ar    1  UNL1       -0.2119
      4 C          65.1113   92.3548   12.6486 C.ar    1  UNL1        0.2206
      5 N          64.8654   91.4390   13.8108 N.ar    1  UNL1       -0.2094
      6 C          63.9994   90.2262   13.6399 C.ar    1  UNL1        0.1613
      7 O          61.0276   88.8693   11.9971 O.2     1  UNL1       -0.2700
      8 C          62.5133   88.7165   12.1359 C.2     1  UNL1        0.2488
      9 N          63.1330   87.3508   12.1039 N.am    1  UNL1       -0.3008
     10 H          64.1082   87.2505   12.1950 H       1  UNL1        0.1497
     11 C          62.2671   86.1381   11.9330 C.3     1  UNL1        0.0898
     12 C          62.7743   84.7894   12.3503 C.3     1  UNL1        0.0246
     13 C          63.0768   83.7483   11.3138 C.3     1  UNL1        0.0338
     14 C          63.5840   82.3998   11.7310 C.3     1  UNL1        0.1422
     15 O          63.7886   82.0924   13.1849 O.3     1  UNL1       -0.3538
     16 C          63.4861   83.1335   14.2214 C.3     1  UNL1        0.1422
     17 C          62.9789   84.4820   13.8041 C.3     1  UNL1        0.0338
     18 C          63.7534   89.3104   14.8022 C.3     1  UNL1        0.4351
     19 F          63.5075   88.3947   15.9645 F       1  UNL1       -0.1644
     20 F          62.5301   90.0991   15.1648 F       1  UNL1       -0.1644
     21 F          64.9768   88.5218   14.4396 F       1  UNL1       -0.1644
     22 N          65.9773   93.5676   12.8194 N.pl3   1  UNL1       -0.2825
     23 H          66.2889   93.8275   13.7164 H       1  UNL1        0.1551
     24 C          66.3686   94.3843   11.6237 C.ar    1  UNL1        0.0514
     25 C          66.1333   95.8657   11.6176 C.ar    1  UNL1        0.0156
     26 C          66.5245   96.6824   10.4219 C.ar    1  UNL1        0.0135
     27 C          67.1511   96.0177    9.2321 C.ar    1  UNL1        0.0683
     28 CL         67.5424   96.8344    8.0363 Cl      1  UNL1       -0.0814
     29 C          67.3864   94.5363    9.2381 C.ar    1  UNL1        0.0694
     30 CL         68.0130   93.8716    8.0483 Cl      1  UNL1       -0.0813
     31 C          66.9951   93.7196   10.4339 C.ar    1  UNL1        0.0269
@<TRIPOS>BOND
     1     7     8    2
     2     8     9   am
     3     9    11    1
     4    11    12    1
     5    12    13    1
     6    13    14    1
     7    14    15    1
     8    15    16    1
     9    16    17    1
    10     8     1    1
    11     1     2   ar
    12     2     3   ar
    13     3     4   ar
    14     4    22    1
    15    22    24    1
    16    24    25   ar
    17    25    26   ar
    18    26    27   ar
    19    27    28    1
    20    27    29   ar
    21    29    30    1
    22    29    31   ar
    23     4     5   ar
    24     5     6   ar
    25     6    18    1
    26    18    19    1
    27    18    20    1
    28    18    21    1
    29    17    12    1
    30     6     1   ar
    31    31    24   ar
    32     9    10    1
    33    22    23    1
@<TRIPOS>MOLECULE
*****
 31 33 0 0 0
SMALL
GASTEIGER

@<TRIPOS>ATOM
      1 C          63.0978   88.9636   12.3077 C.ar    1  UNL1        0.0942
      2 C          64.0274   89.0897   13.4782 C.ar    1  UNL1        0.1078
      3 N          64.7912   90.3621   13.6957 N.ar    1  UNL1       -0.2119
      4 C          64.6255   91.5086   12.7427 C.ar    1  UNL1        0.2206
      5 N          63.6960   91.3826   11.5722 N.ar    1  UNL1       -0.2094
      6 C          62.9322   90.1100   11.3547 C.ar    1  UNL1        0.1613
      7 O          60.8746   87.7417   11.7473 O.2     1  UNL1       -0.2700
      8 C          62.3340   87.6912   12.0902 C.2     1  UNL1        0.2488
      9 N          63.0296   86.3681   12.2156 N.am    1  UNL1       -0.3008
     10 H          63.9874   86.3349   12.4406 H       1  UNL1        0.1497
     11 C          62.2657   85.0956   11.9980 C.3     1  UNL1        0.0898
     12 C          62.6835   83.8399   12.7044 C.3     1  UNL1        0.0246
     13 C          63.1486   83.9002   14.1292 C.3     1  UNL1        0.0338
     14 C          63.5663   82.6446   14.8355 C.3     1  UNL1        0.1422
     15 O          63.5189   81.3287   14.1170 O.3     1  UNL1       -0.3538
     16 C          63.0538   81.2684   12.6922 C.3     1  UNL1        0.1422
     17 C          62.6361   82.5241   11.9859 C.3     1  UNL1        0.0338
     18 C          62.0026   89.9840   10.1842 C.3     1  UNL1        0.4351
     19 F          61.0731   89.8580    9.0137 F       1  UNL1       -0.1644
     20 F          62.9953   89.0983    9.4913 F       1  UNL1       -0.1644
     21 F          61.0100   90.8697   10.8771 F       1  UNL1       -0.1644
     22 N          65.3894   92.7811   12.9603 N.pl3   1  UNL1       -0.2825
     23 H          65.4652   93.1611   13.8653 H       1  UNL1        0.1551
     24 C          66.0378   93.4745   11.7989 C.ar    1  UNL1        0.0514
     25 C          65.8289   94.9454   11.5918 C.ar    1  UNL1        0.0156
     26 C          66.4773   95.6388   10.4305 C.ar    1  UNL1        0.0135
     27 C          67.3345   94.8614    9.4762 C.ar    1  UNL1        0.0683
     28 CL         67.9829   95.5548    8.3148 Cl      1  UNL1       -0.0814
     29 C          67.5434   93.3905    9.6833 C.ar    1  UNL1        0.0694
     30 CL         68.4007   92.6130    8.7289 Cl      1  UNL1       -0.0813
     31 C          66.8950   92.6971   10.8446 C.ar    1  UNL1        0.0269
@<TRIPOS>BOND
     1     7     8    2
     2     8     9   am
     3     9    11    1
     4    11    12    1
     5    12    13    1
     6    13    14    1
     7    14    15    1
     8    15    16    1
     9    16    17    1
    10     8     1    1
    11     1     2   ar
    12     2     3   ar
    13     3     4   ar
    14     4    22    1
    15    22    24    1
    16    24    25   ar
    17    25    26   ar
    18    26    27   ar
    19    27    28    1
    20    27    29   ar
    21    29    30    1
    22    29    31   ar
    23     4     5   ar
    24     5     6   ar
    25     6    18    1
    26    18    19    1
    27    18    20    1
    28    18    21    1
    29    17    12    1
    30     6     1   ar
    31    31    24   ar
    32     9    10    1
    33    22    23    1
@<TRIPOS>MOLECULE
*****
 31 33 0 0 0
SMALL
GASTEIGER

@<TRIPOS>ATOM
      1 C          63.1971   89.0875   12.1461 C.ar    1  UNL1        0.0942
      2 C          63.9661   88.7816   13.3971 C.ar    1  UNL1        0.1078
      3 N          63.9500   87.3942   13.9670 N.ar    1  UNL1       -0.2119
      4 C          63.1649   86.3126   13.2858 C.ar    1  UNL1        0.2206
      5 N          62.3959   86.6186   12.0348 N.ar    1  UNL1       -0.2094
      6 C          62.4120   88.0061   11.4650 C.ar    1  UNL1        0.1613
      7 O          61.9404   91.0993   11.0863 O.2     1  UNL1       -0.2700
      8 C          63.2132   90.4749   11.5762 C.2     1  UNL1        0.2488
      9 N          64.5022   91.2380   11.4963 N.am    1  UNL1       -0.3008
     10 H          65.3376   90.8282   11.8178 H       1  UNL1        0.1497
     11 C          64.5183   92.6254   10.9264 C.3     1  UNL1        0.0898
     12 C          65.8103   93.2314   10.4641 C.3     1  UNL1        0.0246
     13 C          65.9471   94.7220   10.3670 C.3     1  UNL1        0.0338
     14 C          67.2390   95.3279    9.9047 C.3     1  UNL1        0.1422
     15 O          68.3941   94.4433    9.5397 O.3     1  UNL1       -0.3538
     16 C          68.2573   92.9528    9.6368 C.3     1  UNL1        0.1422
     17 C          66.9653   92.3468   10.0991 C.3     1  UNL1        0.0338
     18 C          61.6430   88.3120   10.2139 C.3     1  UNL1        0.4351
     19 F          60.8740   88.6180    8.9629 F       1  UNL1       -0.1644
     20 F          62.8870   88.1116    9.4002 F       1  UNL1       -0.1644
     21 F          60.3989   88.5124   11.0277 F       1  UNL1       -0.1644
     22 N          63.1488   84.9252   13.8557 N.pl3   1  UNL1       -0.2825
     23 H          63.1347   84.7939   14.8313 H       1  UNL1        0.1551
     24 C          63.1541   83.7378   12.9391 C.ar    1  UNL1        0.0514
     25 C          63.6402   83.8822   11.5275 C.ar    1  UNL1        0.0156
     26 C          63.6455   82.6948   10.6109 C.ar    1  UNL1        0.0135
     27 C          63.1647   81.3630   11.1060 C.ar    1  UNL1        0.0683
     28 CL         63.1700   80.1756   10.1895 Cl      1  UNL1       -0.0814
     29 C          62.6785   81.2187   12.5177 C.ar    1  UNL1        0.0694
     30 CL         62.1976   79.8869   13.0128 Cl      1  UNL1       -0.0813
     31 C          62.6732   82.4061   13.4342 C.ar    1  UNL1        0.0269
@<TRIPOS>BOND
     1     7     8    2
     2     8     9   am
     3     9    11    1
     4    11    12    1
     5    12    13    1
     6    13    14    1
     7    14    15    1
     8    15    16    1
     9    16    17    1
    10     8     1    1
    11     1     2   ar
    12     2     3   ar
    13     3     4   ar
    14     4    22    1
    15    22    24    1
    16    24    25   ar
    17    25    26   ar
    18    26    27   ar
    19    27    28    1
    20    27    29   ar
    21    29    30    1
    22    29    31   ar
    23     4     5   ar
    24     5     6   ar
    25     6    18    1
    26    18    19    1
    27    18    20    1
    28    18    21    1
    29    17    12    1
    30     6     1   ar
    31    31    24   ar
    32     9    10    1
    33    22    23    1
@<TRIPOS>MOLECULE
*****
 31 33 0 0 0
SMALL
GASTEIGER

@<TRIPOS>ATOM
      1 C          64.5699   89.7835   14.4690 C.ar    1  UNL1        0.0942
      2 C          65.7319   90.4080   15.1831 C.ar    1  UNL1        0.1078
      3 N          66.2367   91.7553   14.7589 N.ar    1  UNL1       -0.2119
      4 C          65.5796   92.4781   13.6206 C.ar    1  UNL1        0.2206
      5 N          64.4177   91.8537   12.9065 N.ar    1  UNL1       -0.2094
      6 C          63.9128   90.5063   13.3308 C.ar    1  UNL1        0.1613
      7 O          63.1887   88.3109   16.1041 O.2     1  UNL1       -0.2700
      8 C          64.0651   88.4363   14.8932 C.2     1  UNL1        0.2488
      9 N          64.4366   87.2143   14.1065 N.am    1  UNL1       -0.3008
     10 H          65.0118   87.2966   13.3118 H       1  UNL1        0.1497
     11 C          63.9318   85.8670   14.5307 C.3     1  UNL1        0.0898
     12 C          63.6901   84.7996   13.5049 C.3     1  UNL1        0.0246
     13 C          62.8878   85.1085   12.2758 C.3     1  UNL1        0.0338
     14 C          62.6461   84.0410   11.2501 C.3     1  UNL1        0.1422
     15 O          63.2068   82.6647   11.4535 O.3     1  UNL1       -0.3538
     16 C          64.0092   82.3558   12.6826 C.3     1  UNL1        0.1422
     17 C          64.2508   83.4233   13.7083 C.3     1  UNL1        0.0338
     18 C          62.7509   89.8818   12.6167 C.3     1  UNL1        0.4351
     19 F          61.5889   89.2574   11.9026 F       1  UNL1       -0.1644
     20 F          61.9055   90.0513   13.8441 F       1  UNL1       -0.1644
     21 F          63.5963   89.7124   11.3892 F       1  UNL1       -0.1644
     22 N          66.0844   93.8254   13.1964 N.pl3   1  UNL1       -0.2825
     23 H          66.1741   94.5483   13.8587 H       1  UNL1        0.1551
     24 C          66.4526   94.0712   11.7632 C.ar    1  UNL1        0.0514
     25 C          66.0234   95.3386   11.0854 C.ar    1  UNL1        0.0156
     26 C          66.3916   95.5844    9.6522 C.ar    1  UNL1        0.0135
     27 C          67.1889   94.5629    8.8969 C.ar    1  UNL1        0.0683
     28 CL         67.5571   94.8087    7.4637 Cl      1  UNL1       -0.0814
     29 C          67.6181   93.2955    9.5747 C.ar    1  UNL1        0.0694
     30 CL         68.4154   92.2738    8.8193 Cl      1  UNL1       -0.0813
     31 C          67.2499   93.0497   11.0079 C.ar    1  UNL1        0.0269
@<TRIPOS>BOND
     1     7     8    2
     2     8     9   am
     3     9    11    1
     4    11    12    1
     5    12    13    1
     6    13    14    1
     7    14    15    1
     8    15    16    1
     9    16    17    1
    10     8     1    1
    11     1     2   ar
    12     2     3   ar
    13     3     4   ar
    14     4    22    1
    15    22    24    1
    16    24    25   ar
    17    25    26   ar
    18    26    27   ar
    19    27    28    1
    20    27    29   ar
    21    29    30    1
    22    29    31   ar
    23     4     5   ar
    24     5     6   ar
    25     6    18    1
    26    18    19    1
    27    18    20    1
    28    18    21    1
    29    17    12    1
    30     6     1   ar
    31    31    24   ar
    32     9    10    1
    33    22    23    1
@<TRIPOS>MOLECULE
*****
 31 33 0 0 0
SMALL
GASTEIGER

@<TRIPOS>ATOM
      1 C          63.1773   86.8966   12.7164 C.ar    1  UNL1        0.0942
      2 C          62.7942   88.1435   11.9759 C.ar    1  UNL1        0.1078
      3 N          62.9688   89.4846   12.6246 N.ar    1  UNL1       -0.2119
      4 C          63.5265   89.5789   14.0140 C.ar    1  UNL1        0.2206
      5 N          63.9097   88.3319   14.7545 N.ar    1  UNL1       -0.2094
      6 C          63.7350   86.9908   14.1057 C.ar    1  UNL1        0.1613
      7 O          61.7877   85.2787   11.2327 O.2     1  UNL1       -0.2700
      8 C          63.0027   85.5555   12.0677 C.2     1  UNL1        0.2488
      9 N          64.0431   84.4910   12.2540 N.am    1  UNL1       -0.3008
     10 H          64.8405   84.6727   12.8020 H       1  UNL1        0.1497
     11 C          63.8685   83.1499   11.6053 C.3     1  UNL1        0.0898
     12 C          63.1231   82.0622   12.3203 C.3     1  UNL1        0.0246
     13 C          63.1556   80.6586   11.7924 C.3     1  UNL1        0.0338
     14 C          62.4102   79.5710   12.5075 C.3     1  UNL1        0.1422
     15 O          61.6323   79.8869   13.7505 O.3     1  UNL1       -0.3538
     16 C          61.5999   81.2905   14.2784 C.3     1  UNL1        0.1422
     17 C          62.3452   82.3782   13.5634 C.3     1  UNL1        0.0338
     18 C          64.1182   85.7438   14.8462 C.3     1  UNL1        0.4351
     19 F          64.5013   84.4969   15.5867 F       1  UNL1       -0.1644
     20 F          62.6683   85.3963   15.0111 F       1  UNL1       -0.1644
     21 F          65.5680   86.0913   14.6813 F       1  UNL1       -0.1644
     22 N          63.7011   90.9200   14.6627 N.pl3   1  UNL1       -0.2825
     23 H          62.9136   91.4238   14.9713 H       1  UNL1        0.1551
     24 C          65.0756   91.4935   14.8412 C.ar    1  UNL1        0.0514
     25 C          65.4227   92.2312   16.1003 C.ar    1  UNL1        0.0156
     26 C          66.7972   92.8048   16.2789 C.ar    1  UNL1        0.0135
     27 C          67.8246   92.6406   15.1984 C.ar    1  UNL1        0.0683
     28 CL         69.1990   93.2141   15.3769 Cl      1  UNL1       -0.0814
     29 C          67.4775   91.9029   13.9393 C.ar    1  UNL1        0.0694
     30 CL         68.5049   91.7386   12.8588 Cl      1  UNL1       -0.0813
     31 C          66.1030   91.3293   13.7608 C.ar    1  UNL1        0.0269
@<TRIPOS>BOND
     1     7     8    2
     2     8     9   am
     3     9    11    1
     4    11    12    1
     5    12    13    1
     6    13    14    1
     7    14    15    1
     8    15    16    1
     9    16    17    1
    10     8     1    1
    11     1     2   ar
    12     2     3   ar
    13     3     4   ar
    14     4    22    1
    15    22    24    1
    16    24    25   ar
    17    25    26   ar
    18    26    27   ar
    19    27    28    1
    20    27    29   ar
    21    29    30    1
    22    29    31   ar
    23     4     5   ar
    24     5     6   ar
    25     6    18    1
    26    18    19    1
    27    18    20    1
    28    18    21    1
    29    17    12    1
    30     6     1   ar
    31    31    24   ar
    32     9    10    1
    33    22    23    1
@<TRIPOS>MOLECULE
*****
 31 33 0 0 0
SMALL
GASTEIGER

@<TRIPOS>ATOM
      1 C          63.6409   88.4889   13.6865 C.ar    1  UNL1        0.0942
      2 C          64.0593   87.1445   14.2038 C.ar    1  UNL1        0.1078
      3 N          63.7344   85.9059   13.4225 N.ar    1  UNL1       -0.2119
      4 C          62.9911   86.0118   12.1239 C.ar    1  UNL1        0.2206
      5 N          62.5726   87.3561   11.6067 N.ar    1  UNL1       -0.2094
      6 C          62.8976   88.5947   12.3880 C.ar    1  UNL1        0.1613
      7 O          63.0646   90.1689   15.5827 O.2     1  UNL1       -0.2700
      8 C          63.9658   89.7274   14.4678 C.2     1  UNL1        0.2488
      9 N          65.1919   90.5245   14.1342 N.am    1  UNL1       -0.3008
     10 H          65.7834   90.2348   13.4025 H       1  UNL1        0.1497
     11 C          65.5168   91.7631   14.9155 C.3     1  UNL1        0.0898
     12 C          66.9222   92.2870   14.9404 C.3     1  UNL1        0.0246
     13 C          67.9046   91.8489   13.8951 C.3     1  UNL1        0.0338
     14 C          69.3099   92.3729   13.9201 C.3     1  UNL1        0.1422
     15 O          69.7327   93.3349   14.9904 O.3     1  UNL1       -0.3538
     16 C          68.7503   93.7730   16.0358 C.3     1  UNL1        0.1422
     17 C          67.3450   93.2491   16.0108 C.3     1  UNL1        0.0338
     18 C          62.4791   89.9391   11.8708 C.3     1  UNL1        0.4351
     19 F          62.0607   91.2835   11.3535 F       1  UNL1       -0.1644
     20 F          61.1551   89.7923   12.5603 F       1  UNL1       -0.1644
     21 F          63.8032   90.0859   11.1813 F       1  UNL1       -0.1644
     22 N          62.6662   84.7732   11.3427 N.pl3   1  UNL1       -0.2825
     23 H          62.4923   84.8328   10.3755 H       1  UNL1        0.1551
     24 C          62.6061   83.4439   12.0350 C.ar    1  UNL1        0.0514
     25 C          62.3557   83.3784   13.5125 C.ar    1  UNL1        0.0156
     26 C          62.2956   82.0491   14.2048 C.ar    1  UNL1        0.0135
     27 C          62.4860   80.7853   13.4197 C.ar    1  UNL1        0.0683
     28 CL         62.4259   79.4560   14.1120 Cl      1  UNL1       -0.0814
     29 C          62.7364   80.8508   11.9422 C.ar    1  UNL1        0.0694
     30 CL         62.9268   79.5869   11.1570 Cl      1  UNL1       -0.0813
     31 C          62.7965   82.1801   11.2499 C.ar    1  UNL1        0.0269
@<TRIPOS>BOND
     1     7     8    2
     2     8     9   am
     3     9    11    1
     4    11    12    1
     5    12    13    1
     6    13    14    1
     7    14    15    1
     8    15    16    1
     9    16    17    1
    10     8     1    1
    11     1     2   ar
    12     2     3   ar
    13     3     4   ar
    14     4    22    1
    15    22    24    1
    16    24    25   ar
    17    25    26   ar
    18    26    27   ar
    19    27    28    1
    20    27    29   ar
    21    29    30    1
    22    29    31   ar
    23     4     5   ar
    24     5     6   ar
    25     6    18    1
    26    18    19    1
    27    18    20    1
    28    18    21    1
    29    17    12    1
    30     6     1   ar
    31    31    24   ar
    32     9    10    1
    33    22    23    1
@<TRIPOS>MOLECULE
*****
 31 33 0 0 0
SMALL
GASTEIGER

@<TRIPOS>ATOM
      1 C          63.5444   86.3923   14.8662 C.ar    1  UNL1        0.0942
      2 C          63.9352   87.0822   13.5929 C.ar    1  UNL1        0.1078
      3 N          64.0718   88.5756   13.5604 N.ar    1  UNL1       -0.2119
      4 C          63.8176   89.3792   14.8013 C.ar    1  UNL1        0.2206
      5 N          63.4268   88.6893   16.0746 N.ar    1  UNL1       -0.2094
      6 C          63.2902   87.1958   16.1071 C.ar    1  UNL1        0.1613
      7 O          64.6023   84.0429   15.1988 O.2     1  UNL1       -0.2700
      8 C          63.4077   84.8990   14.8987 C.2     1  UNL1        0.2488
      9 N          62.0764   84.2616   14.6310 N.am    1  UNL1       -0.3008
     10 H          61.2924   84.8235   14.4340 H       1  UNL1        0.1497
     11 C          61.9398   82.7682   14.6635 C.3     1  UNL1        0.0898
     12 C          62.3140   81.9545   13.4602 C.3     1  UNL1        0.0246
     13 C          62.2253   80.4580   13.5097 C.3     1  UNL1        0.0338
     14 C          62.5994   79.6443   12.3064 C.3     1  UNL1        0.1422
     15 O          63.0623   80.3272   11.0536 O.3     1  UNL1       -0.3538
     16 C          63.1509   81.8237   11.0041 C.3     1  UNL1        0.1422
     17 C          62.7768   82.6373   12.2074 C.3     1  UNL1        0.0338
     18 C          62.8993   86.5059   17.3804 C.3     1  UNL1        0.4351
     19 F          62.5085   85.8161   18.6537 F       1  UNL1       -0.1644
     20 F          64.2930   85.9683   17.5169 F       1  UNL1       -0.1644
     21 F          61.5057   87.0436   17.2439 F       1  UNL1       -0.1644
     22 N          63.9543   90.8726   14.7689 N.pl3   1  UNL1       -0.2825
     23 H          63.1557   91.4376   14.6580 H       1  UNL1        0.1551
     24 C          65.3076   91.5050   14.9053 C.ar    1  UNL1        0.0514
     25 C          65.6405   92.3076   16.1279 C.ar    1  UNL1        0.0156
     26 C          66.9938   92.9401   16.2643 C.ar    1  UNL1        0.0135
     27 C          68.0141   92.7700   15.1781 C.ar    1  UNL1        0.0683
     28 CL         69.3674   93.4024   15.3145 Cl      1  UNL1       -0.0814
     29 C          67.6812   91.9674   13.9554 C.ar    1  UNL1        0.0694
     30 CL         68.7015   91.7972   12.8691 Cl      1  UNL1       -0.0813
     31 C          66.3279   91.3349   13.8190 C.ar    1  UNL1        0.0269
@<TRIPOS>BOND
     1     7     8    2
     2     8     9   am
     3     9    11    1
     4    11    12    1
     5    12    13    1
     6    13    14    1
     7    14    15    1
     8    15    16    1
     9    16    17    1
    10     8     1    1
    11     1     2   ar
    12     2     3   ar
    13     3     4   ar
    14     4    22    1
    15    22    24    1
    16    24    25   ar
    17    25    26   ar
    18    26    27   ar
    19    27    28    1
    20    27    29   ar
    21    29    30    1
    22    29    31   ar
    23     4     5   ar
    24     5     6   ar
    25     6    18    1
    26    18    19    1
    27    18    20    1
    28    18    21    1
    29    17    12    1
    30     6     1   ar
    31    31    24   ar
    32     9    10    1
    33    22    23    1
@<TRIPOS>MOLECULE
*****
 31 33 0 0 0
SMALL
GASTEIGER

@<TRIPOS>ATOM
      1 C          63.8317   89.2640   13.2313 C.ar    1  UNL1        0.0942
      2 C          64.6600   88.7894   14.3883 C.ar    1  UNL1        0.1078
      3 N          64.6106   87.3494   14.8054 N.ar    1  UNL1       -0.2119
      4 C          63.7328   86.3840   14.0654 C.ar    1  UNL1        0.2206
      5 N          62.9045   86.8586   12.9084 N.ar    1  UNL1       -0.2094
      6 C          62.9540   88.2986   12.4914 C.ar    1  UNL1        0.1613
      7 O          62.9691   91.7039   13.4609 O.2     1  UNL1       -0.2700
      8 C          63.8812   90.7040   12.8143 C.2     1  UNL1        0.2488
      9 N          64.8429   91.1441   11.7505 N.am    1  UNL1       -0.3008
     10 H          65.4415   90.4878   11.3260 H       1  UNL1        0.1497
     11 C          64.8923   92.5841   11.3334 C.3     1  UNL1        0.0898
     12 C          66.1218   93.1312   10.6707 C.3     1  UNL1        0.0246
     13 C          67.2582   92.2151   10.3250 C.3     1  UNL1        0.0338
     14 C          68.4876   92.7623    9.6624 C.3     1  UNL1        0.1422
     15 O          68.5807   94.2254    9.3454 O.3     1  UNL1       -0.3538
     16 C          67.4443   95.1415    9.6911 C.3     1  UNL1        0.1422
     17 C          66.2149   94.5943   10.3537 C.3     1  UNL1        0.0338
     18 C          62.1257   88.7733   11.3344 C.3     1  UNL1        0.4351
     19 F          61.2974   89.2479   10.1774 F       1  UNL1       -0.1644
     20 F          61.1113   89.3300   12.2889 F       1  UNL1       -0.1644
     21 F          63.1400   88.2166   10.3798 F       1  UNL1       -0.1644
     22 N          63.6833   84.9440   14.4825 N.pl3   1  UNL1       -0.2825
     23 H          63.7669   84.7038   15.4336 H       1  UNL1        0.1551
     24 C          63.5063   83.8699   13.4505 C.ar    1  UNL1        0.0514
     25 C          62.7226   82.6343   13.7807 C.ar    1  UNL1        0.0156
     26 C          62.5457   81.5602   12.7487 C.ar    1  UNL1        0.0135
     27 C          63.1524   81.7217   11.3865 C.ar    1  UNL1        0.0683
     28 CL         62.9755   80.6476   10.3544 Cl      1  UNL1       -0.0814
     29 C          63.9361   82.9573   11.0562 C.ar    1  UNL1        0.0694
     30 CL         64.5429   83.1189    9.6939 Cl      1  UNL1       -0.0813
     31 C          64.1131   84.0314   12.0882 C.ar    1  UNL1        0.0269
@<TRIPOS>BOND
     1     7     8    2
     2     8     9   am
     3     9    11    1
     4    11    12    1
     5    12    13    1
     6    13    14    1
     7    14    15    1
     8    15    16    1
     9    16    17    1
    10     8     1    1
    11     1     2   ar
    12     2     3   ar
    13     3     4   ar
    14     4    22    1
    15    22    24    1
    16    24    25   ar
    17    25    26   ar
    18    26    27   ar
    19    27    28    1
    20    27    29   ar
    21    29    30    1
    22    29    31   ar
    23     4     5   ar
    24     5     6   ar
    25     6    18    1
    26    18    19    1
    27    18    20    1
    28    18    21    1
    29    17    12    1
    30     6     1   ar
    31    31    24   ar
    32     9    10    1
    33    22    23    1
