@<TRIPOS>MOLECULE
*****
 49 55 0 0 0
SMALL
GASTEIGER

@<TRIPOS>ATOM
      1 C          60.4656   88.1655    8.7245 C.3     1  UNL1        0.1543
      2 O          58.5703   89.5603    7.0363 O.2     1  UNL1       -0.2526
      3 C          59.3510   89.6303    6.8910 C.2     1  UNL1        0.3043
      4 N          60.5850   89.0711    7.5348 N.am    1  UNL1       -0.2822
      5 N          59.4704   90.5360    5.7012 N.am    1  UNL1       -0.2641
      6 C          58.2364   91.0951    5.0574 C.3     1  UNL1        0.0966
      7 C          58.3558   92.0007    3.8677 C.3     1  UNL1        0.0415
      8 C          59.7093   92.3472    3.3217 C.3     1  UNL1        0.0806
      9 C          60.9433   91.7881    3.9655 C.3     1  UNL1        0.0415
     10 C          60.8239   90.8825    5.1552 C.3     1  UNL1        0.0966
     11 H          61.4733   89.2985    7.1764 H       1  UNL1        0.1514
     12 N          59.8287   93.2529    2.1319 N.am    1  UNL1       -0.2613
     13 C          59.7926   92.6796    0.7463 C.3     1  UNL1        0.1228
     14 C          59.9120   93.5853   -0.4435 C.ar    1  UNL1        0.0112
     15 C          59.8759   93.0120   -1.8291 C.ar    1  UNL1       -0.0014
     16 C          59.9953   93.9177   -3.0188 C.ar    1  UNL1       -0.0002
     17 C          60.1508   95.3967   -2.8229 C.ar    1  UNL1        0.0013
     18 C          60.1870   95.9700   -1.4373 C.ar    1  UNL1        0.0144
     19 C          60.0676   95.0643   -0.2476 C.ar    1  UNL1        0.0492
     20 N          60.1037   95.6376    1.1382 N.am    1  UNL1       -0.2684
     21 C          59.9843   94.7319    2.3278 C.2     1  UNL1        0.3079
     22 O          60.0204   95.3052    3.7136 O.2     1  UNL1       -0.2522
     23 H          60.2058   96.6083    1.2668 H       1  UNL1        0.1564
     24 C          60.2608   88.7468   10.0920 C.2     1  UNL1        0.2439
     25 O          58.9515   88.5573   10.7991 O.2     1  UNL1       -0.2731
     26 N          61.3652   89.5175   10.7524 N.am    1  UNL1       -0.2781
     27 C          62.6743   89.7070   10.0453 C.3     1  UNL1        0.0948
     28 C          63.7788   90.4778   10.7057 C.3     1  UNL1        0.0375
     29 C          63.5740   91.0591   12.0733 C.3     1  UNL1        0.0609
     30 C          62.2647   90.8696   12.7804 C.3     1  UNL1        0.0375
     31 C          61.1604   90.0988   12.1200 C.3     1  UNL1        0.0948
     32 N          64.6784   91.8298   12.7337 N.3     1  UNL1       -0.2738
     33 C          65.3515   92.9525   12.0012 C.3     1  UNL1        0.0720
     34 C          66.4560   93.7233   12.6616 C.3     1  UNL1        0.0174
     35 C          66.8873   93.3714   14.0545 C.3     1  UNL1        0.0029
     36 C          66.2141   92.2487   14.7870 C.3     1  UNL1        0.0174
     37 C          65.1098   91.4779   14.1266 C.3     1  UNL1        0.0720
     38 C          60.5509   86.6784    8.5467 C.3     1  UNL1        0.0556
     39 C          61.4931   85.8748    9.3931 C.2     1  UNL1       -0.0144
     40 C          61.3851   85.9232   10.8884 C.2     1  UNL1        0.0347
     41 C          62.3272   85.1195   11.7349 C.2     1  UNL1        0.1613
     42 O          62.4608   84.9682   13.2212 O.3     1  UNL1       -0.4079
     43 C          63.5934   84.0225   13.4909 C.2     1  UNL1        0.4298
     44 O          64.0751   83.5865   14.8430 O.2     1  UNL1       -0.2238
     45 N          64.1600   83.5895   12.1713 N.am    1  UNL1       -0.1430
     46 C          63.3774   84.2675   11.0860 C.2     1  UNL1        0.0938
     47 C          63.4855   84.2190    9.5906 C.3     1  UNL1        0.0793
     48 C          62.5433   85.0227    8.7442 C.2     1  UNL1        0.0144
     49 BR         62.6513   84.9743    7.2489 Br      1  UNL1       -0.0536
@<TRIPOS>BOND
     1     2     3    2
     2     3     4   am
     3     4     1    1
     4     1    38    1
     5    38    39    1
     6    39    40    1
     7    40    41    2
     8    41    42    1
     9    42    43    1
    10    43    44    2
    11    43    45    1
    12    45    46    2
    13    46    47    1
    14    47    48    1
    15    48    49    1
    16     1    24    1
    17    24    25    2
    18    24    26   am
    19    26    27    1
    20    27    28    1
    21    28    29    1
    22    29    32    1
    23    32    33    1
    24    33    34    1
    25    34    35    1
    26    35    36    1
    27    36    37    1
    28    29    30    1
    29    30    31    1
    30     3     5   am
    31     5     6    1
    32     6     7    1
    33     7     8    1
    34     8    12    1
    35    12    13    1
    36    13    14    1
    37    14    15   ar
    38    15    16   ar
    39    16    17   ar
    40    17    18   ar
    41    18    19   ar
    42    19    20    1
    43    20    21   am
    44    21    22    2
    45     8     9    1
    46     9    10    1
    47    48    39    2
    48    31    26    1
    49    10     5    1
    50    46    41    1
    51    37    32    1
    52    21    12   am
    53    19    14   ar
    54     4    11    1
    55    20    23    1
@<TRIPOS>MOLECULE
*****
 49 55 0 0 0
SMALL
GASTEIGER

@<TRIPOS>ATOM
      1 C          60.2083   89.0597    8.1092 C.3     1  UNL1        0.1543
      2 O          58.7008   90.5278    6.1193 O.2     1  UNL1       -0.2526
      3 C          59.4952   90.4927    6.0628 C.2     1  UNL1        0.3043
      4 N          60.5707   89.8453    6.8839 N.am    1  UNL1       -0.2822
      5 N          59.8576   91.2783    4.8374 N.am    1  UNL1       -0.2641
      6 C          58.7821   91.9257    4.0164 C.3     1  UNL1        0.0966
      7 C          59.1445   92.7113    2.7910 C.3     1  UNL1        0.0415
      8 C          60.5824   92.8496    2.3868 C.3     1  UNL1        0.0806
      9 C          61.6578   92.2022    3.2079 C.3     1  UNL1        0.0415
     10 C          61.2954   91.4166    4.4332 C.3     1  UNL1        0.0966
     11 H          61.5144   89.9361    6.6186 H       1  UNL1        0.1514
     12 N          60.9447   93.6352    1.1614 N.am    1  UNL1       -0.2613
     13 C          61.5795   92.9468   -0.0104 C.3     1  UNL1        0.1228
     14 C          61.9418   93.7325   -1.2358 C.ar    1  UNL1        0.0112
     15 C          62.5766   93.0440   -2.4075 C.ar    1  UNL1       -0.0014
     16 C          62.9389   93.8297   -3.6328 C.ar    1  UNL1       -0.0002
     17 C          62.6665   95.3038   -3.6864 C.ar    1  UNL1        0.0013
     18 C          62.0318   95.9922   -2.5146 C.ar    1  UNL1        0.0144
     19 C          61.6694   95.2065   -1.2893 C.ar    1  UNL1        0.0492
     20 N          61.0347   95.8950   -0.1174 N.am    1  UNL1       -0.2684
     21 C          60.6723   95.1093    1.1079 C.2     1  UNL1        0.3079
     22 O          60.0376   95.7977    2.2798 O.2     1  UNL1       -0.2522
     23 H          60.8559   96.8625   -0.1525 H       1  UNL1        0.1564
     24 C          60.2549   87.5607    8.0801 C.2     1  UNL1        0.2439
     25 O          59.5644   86.8101    6.9801 O.2     1  UNL1       -0.2731
     26 N          60.9920   86.8123    9.1508 N.am    1  UNL1       -0.2781
     27 C          61.6825   87.5629   10.2507 C.3     1  UNL1        0.0948
     28 C          62.4197   86.8145   11.3215 C.3     1  UNL1        0.0375
     29 C          62.4663   85.3155   11.2924 C.3     1  UNL1        0.0609
     30 C          61.7758   84.5649   10.1924 C.3     1  UNL1        0.0375
     31 C          61.0387   85.3133    9.1217 C.3     1  UNL1        0.0948
     32 N          63.2034   84.5671   12.3631 N.3     1  UNL1       -0.2738
     33 C          63.3574   83.0782   12.2670 C.3     1  UNL1        0.0720
     34 C          64.0946   82.3297   13.3377 C.3     1  UNL1        0.0174
     35 C          64.6777   83.0703   14.5046 C.3     1  UNL1        0.0029
     36 C          64.5236   84.5593   14.6007 C.3     1  UNL1        0.0174
     37 C          63.7865   85.3077   13.5300 C.3     1  UNL1        0.0720
     38 C          59.7992   89.7731    9.3638 C.3     1  UNL1        0.0556
     39 C          60.8356   90.1691   10.3732 C.2     1  UNL1       -0.0144
     40 C          62.1227   90.7930    9.9215 C.2     1  UNL1        0.0347
     41 C          63.1591   91.1890   10.9310 C.2     1  UNL1        0.1613
     42 O          64.5124   91.8194   10.7857 O.3     1  UNL1       -0.4079
     43 C          65.0981   91.9812   12.1571 C.2     1  UNL1        0.4298
     44 O          66.4396   92.5700   12.4791 O.2     1  UNL1       -0.2238
     45 N          64.1067   91.4507   13.1500 N.am    1  UNL1       -0.1430
     46 C          62.9084   90.9612   12.3922 C.2     1  UNL1        0.0938
     47 C          61.6213   90.3373   12.8440 C.3     1  UNL1        0.0793
     48 C          60.5849   89.9413   11.8345 C.2     1  UNL1        0.0144
     49 BR         59.2978   89.3174   12.2863 Br      1  UNL1       -0.0536
@<TRIPOS>BOND
     1     2     3    2
     2     3     4   am
     3     4     1    1
     4     1    38    1
     5    38    39    1
     6    39    40    1
     7    40    41    2
     8    41    42    1
     9    42    43    1
    10    43    44    2
    11    43    45    1
    12    45    46    2
    13    46    47    1
    14    47    48    1
    15    48    49    1
    16     1    24    1
    17    24    25    2
    18    24    26   am
    19    26    27    1
    20    27    28    1
    21    28    29    1
    22    29    32    1
    23    32    33    1
    24    33    34    1
    25    34    35    1
    26    35    36    1
    27    36    37    1
    28    29    30    1
    29    30    31    1
    30     3     5   am
    31     5     6    1
    32     6     7    1
    33     7     8    1
    34     8    12    1
    35    12    13    1
    36    13    14    1
    37    14    15   ar
    38    15    16   ar
    39    16    17   ar
    40    17    18   ar
    41    18    19   ar
    42    19    20    1
    43    20    21   am
    44    21    22    2
    45     8     9    1
    46     9    10    1
    47    48    39    2
    48    31    26    1
    49    10     5    1
    50    46    41    1
    51    37    32    1
    52    21    12   am
    53    19    14   ar
    54     4    11    1
    55    20    23    1
@<TRIPOS>MOLECULE
*****
 49 55 0 0 0
SMALL
GASTEIGER

@<TRIPOS>ATOM
      1 C          59.7550   88.6104    7.5973 C.3     1  UNL1        0.1543
      2 O          60.2954   89.1334   10.3940 O.2     1  UNL1       -0.2526
      3 C          60.8090   89.3892    9.8405 C.2     1  UNL1        0.3043
      4 N          60.8558   89.3039    8.3437 N.am    1  UNL1       -0.2822
      5 N          61.9098   90.0828   10.5871 N.am    1  UNL1       -0.2641
      6 C          61.8630   90.1681   12.0839 C.3     1  UNL1        0.0966
      7 C          62.9638   90.8616   12.8303 C.3     1  UNL1        0.0415
      8 C          64.1114   91.4698   12.0800 C.3     1  UNL1        0.0806
      9 C          64.1582   91.3845   10.5832 C.3     1  UNL1        0.0415
     10 C          63.0574   90.6910    9.8367 C.3     1  UNL1        0.0966
     11 H          61.6090   89.7031    7.8512 H       1  UNL1        0.1514
     12 N          65.2122   92.1633   12.8265 N.am    1  UNL1       -0.2613
     13 C          65.8095   91.5253   14.0456 C.3     1  UNL1        0.1228
     14 C          66.9103   92.2189   14.7921 C.ar    1  UNL1        0.0112
     15 C          67.5075   91.5808   16.0112 C.ar    1  UNL1       -0.0014
     16 C          68.6083   92.2744   16.7577 C.ar    1  UNL1       -0.0002
     17 C          69.1118   93.6059   16.2850 C.ar    1  UNL1        0.0013
     18 C          68.5146   94.2439   15.0659 C.ar    1  UNL1        0.0144
     19 C          67.4139   93.5504   14.3195 C.ar    1  UNL1        0.0492
     20 N          66.8166   94.1884   13.1003 N.am    1  UNL1       -0.2684
     21 C          65.7158   93.4949   12.3539 C.2     1  UNL1        0.3079
     22 O          65.1185   94.1329   11.1347 O.2     1  UNL1       -0.2522
     23 H          67.1471   95.0624   12.7901 H       1  UNL1        0.1564
     24 C          58.7911   89.4084    6.7701 C.2     1  UNL1        0.2439
     25 O          57.3145   89.2633    6.9906 O.2     1  UNL1       -0.2731
     26 N          59.3039   90.3516    5.7225 N.am    1  UNL1       -0.2781
     27 C          60.7804   90.4967    5.5020 C.3     1  UNL1        0.0948
     28 C          61.2932   91.4398    4.4543 C.3     1  UNL1        0.0375
     29 C          60.3294   92.2378    3.6271 C.3     1  UNL1        0.0609
     30 C          58.8528   92.0927    3.8477 C.3     1  UNL1        0.0375
     31 C          58.3400   91.1496    4.8953 C.3     1  UNL1        0.0948
     32 N          60.8421   93.1809    2.5795 N.3     1  UNL1       -0.2738
     33 C          60.1372   94.4815    2.3315 C.3     1  UNL1        0.0720
     34 C          60.6499   95.4246    1.2838 C.3     1  UNL1        0.0174
     35 C          61.8676   95.0672    0.4842 C.3     1  UNL1        0.0029
     36 C          62.5726   93.7666    0.7322 C.3     1  UNL1        0.0174
     37 C          62.0599   92.8235    1.7799 C.3     1  UNL1        0.0720
     38 C          59.6180   87.1188    7.6780 C.3     1  UNL1        0.0556
     39 C          60.6165   86.3150    8.4570 C.2     1  UNL1       -0.0144
     40 C          60.6876   86.4498    9.9492 C.2     1  UNL1        0.0347
     41 C          61.6861   85.6460   10.7281 C.2     1  UNL1        0.1613
     42 O          61.9868   85.5688   12.1956 O.3     1  UNL1       -0.4079
     43 C          63.1002   84.5824   12.3893 C.2     1  UNL1        0.4298
     44 O          63.7177   84.1961   13.7007 O.2     1  UNL1       -0.2238
     45 N          63.4875   84.0500   11.0415 N.am    1  UNL1       -0.1430
     46 C          62.6136   84.7074   10.0149 C.2     1  UNL1        0.0938
     47 C          62.5425   84.5726    8.5226 C.3     1  UNL1        0.0793
     48 C          61.5440   85.3764    7.7436 C.2     1  UNL1        0.0144
     49 BR         61.4729   85.2416    6.2514 Br      1  UNL1       -0.0536
@<TRIPOS>BOND
     1     2     3    2
     2     3     4   am
     3     4     1    1
     4     1    38    1
     5    38    39    1
     6    39    40    1
     7    40    41    2
     8    41    42    1
     9    42    43    1
    10    43    44    2
    11    43    45    1
    12    45    46    2
    13    46    47    1
    14    47    48    1
    15    48    49    1
    16     1    24    1
    17    24    25    2
    18    24    26   am
    19    26    27    1
    20    27    28    1
    21    28    29    1
    22    29    32    1
    23    32    33    1
    24    33    34    1
    25    34    35    1
    26    35    36    1
    27    36    37    1
    28    29    30    1
    29    30    31    1
    30     3     5   am
    31     5     6    1
    32     6     7    1
    33     7     8    1
    34     8    12    1
    35    12    13    1
    36    13    14    1
    37    14    15   ar
    38    15    16   ar
    39    16    17   ar
    40    17    18   ar
    41    18    19   ar
    42    19    20    1
    43    20    21   am
    44    21    22    2
    45     8     9    1
    46     9    10    1
    47    48    39    2
    48    31    26    1
    49    10     5    1
    50    46    41    1
    51    37    32    1
    52    21    12   am
    53    19    14   ar
    54     4    11    1
    55    20    23    1
