@<TRIPOS>MOLECULE
*****
 53 58 0 0 0
SMALL
GASTEIGER

@<TRIPOS>ATOM
      1 C          63.0985   82.2747   12.6313 C.ar    1  UNL1        0.1090
      2 C          62.3276   80.9880   12.6283 C.ar    1  UNL1        0.0405
      3 C          62.6812   79.8996   13.5980 C.ar    1  UNL1        0.1596
      4 F          61.9104   78.6128   13.5951 F       1  UNL1       -0.2025
      5 C          63.8057   80.0980   14.5708 C.ar    1  UNL1        0.1316
      6 N          64.5766   81.3847   14.5738 N.ar    1  UNL1       -0.2073
      7 C          64.2229   82.4731   13.6041 C.ar    1  UNL1        0.2341
      8 N          62.0155   84.5842   12.1379 N.am    1  UNL1       -0.3024
      9 C          62.7449   83.3631   11.6616 C.2     1  UNL1        0.2504
     10 O          63.1207   83.2304   10.2155 O.2     1  UNL1       -0.2700
     11 H          61.7688   84.6713   13.0870 H       1  UNL1        0.1497
     12 C          60.9548   87.8493    9.2286 C.3     1  UNL1        0.0720
     13 C          61.5592   86.5695    8.7320 C.3     1  UNL1        0.0213
     14 C          61.9128   85.4812    9.7017 C.3     1  UNL1        0.0213
     15 C          61.6619   85.6726   11.1681 C.3     1  UNL1        0.0720
     16 C          61.0575   86.9524   11.6648 C.3     1  UNL1        0.0213
     17 C          60.7039   88.0408   10.6951 C.3     1  UNL1        0.0213
     18 C          59.4467   88.7582    7.3182 C.2     1  UNL1        0.2653
     19 O          58.6457   87.4903    7.3473 O.2     1  UNL1       -0.2684
     20 N          60.6012   88.9377    8.2589 N.am    1  UNL1       -0.3012
     21 H          61.1269   89.7699    8.2398 H       1  UNL1        0.1497
     22 C          59.8454   92.6178    3.7369 C.3     1  UNL1        0.0518
     23 C          59.2764   91.6207    4.7023 C.ar    1  UNL1        0.0577
     24 C          60.0622   90.6468    5.5296 C.ar    1  UNL1        0.0398
     25 C          59.0931   89.8466    6.3485 C.ar    1  UNL1        0.1551
     26 N          57.7085   90.3259    6.0274 N.ar    1  UNL1       -0.1649
     27 N          57.8217   91.4223    5.0101 N.ar    1  UNL1       -0.2527
     28 C          56.6807   92.1862    4.4064 C.3     1  UNL1        0.1533
     29 O          64.9938   83.7599   13.6071 O.3     1  UNL1       -0.4360
     30 C          64.4886   84.9350   14.3905 C.ar    1  UNL1        0.1472
     31 C          63.7921   84.7189   15.7014 C.ar    1  UNL1        0.0376
     32 C          63.2869   85.8940   16.4849 C.ar    1  UNL1        0.0031
     33 C          63.4780   87.2852   15.9575 C.ar    1  UNL1        0.0002
     34 C          64.1744   87.5013   14.6467 C.ar    1  UNL1        0.0030
     35 C          64.6797   86.3262   13.8632 C.ar    1  UNL1        0.0376
     36 C          64.3656   88.8925   14.1192 C.ar    1  UNL1        0.0001
     37 C          65.3004   89.8366   14.8155 C.ar    1  UNL1       -0.0003
     38 C          65.4916   91.2277   14.2881 C.ar    1  UNL1       -0.0043
     39 C          64.7480   91.6747   13.0645 C.ar    1  UNL1       -0.0221
     40 C          63.8132   90.7306   12.3683 C.ar    1  UNL1       -0.0043
     41 C          63.6220   89.3394   12.8957 C.ar    1  UNL1       -0.0003
     42 C          64.9391   93.0659   12.5371 C.3     1  UNL1        0.0278
     43 C          66.0493   93.9235   13.0684 C.3     1  UNL1        0.0220
     44 C          66.5348   95.0992   12.2736 C.3     1  UNL1        0.0725
     45 N          66.8799   94.9331   10.8233 N.3     1  UNL1       -0.2704
     46 C          66.4655   95.9773    9.8294 C.3     1  UNL1        0.0880
     47 C          66.8106   95.8112    8.3791 C.3     1  UNL1        0.0702
     48 C          66.3962   96.8555    7.3852 C.3     1  UNL1        0.0186
     49 N          67.5700   94.6009    7.9227 N.3     1  UNL1       -0.2974
     50 C          67.9844   93.5566    8.9166 C.3     1  UNL1        0.0702
     51 C          68.7439   92.3463    8.4602 C.3     1  UNL1        0.0186
     52 C          67.6394   93.7227   10.3669 C.3     1  UNL1        0.0880
     53 H          68.4234   94.9391    7.4779 H       1  UNL1        0.1232
@<TRIPOS>BOND
     1    22    23    1
     2    23    24   ar
     3    24    25   ar
     4    25    18    1
     5    18    19    2
     6    18    20   am
     7    12    20    1
     8    12    13    1
     9    13    14    1
    10    14    15    1
    11    15     8    1
    12     8     9   am
    13     9    10    2
    14     9     1    1
    15     1     2   ar
    16     2     3   ar
    17     3     4    1
    18     3     5   ar
    19     5     6   ar
    20     6     7   ar
    21     7    29    1
    22    29    30    1
    23    30    31   ar
    24    31    32   ar
    25    32    33   ar
    26    33    34   ar
    27    34    36    1
    28    36    37   ar
    29    37    38   ar
    30    38    39   ar
    31    39    42    1
    32    42    43    1
    33    43    44    1
    34    44    45    1
    35    45    46    1
    36    46    47    1
    37    47    48    1
    38    47    49    1
    39    49    50    1
    40    50    51    1
    41    50    52    1
    42    39    40   ar
    43    40    41   ar
    44    34    35   ar
    45    15    16    1
    46    16    17    1
    47    25    26   ar
    48    26    27   ar
    49    27    28    1
    50    27    23   ar
    51    17    12    1
    52     7     1   ar
    53    35    30   ar
    54    41    36   ar
    55    52    45    1
    56    20    21    1
    57     8    11    1
    58    49    53    1
@<TRIPOS>MOLECULE
*****
 53 58 0 0 0
SMALL
GASTEIGER

@<TRIPOS>ATOM
      1 C          63.0214   82.5953   12.6308 C.ar    1  UNL1        0.1090
      2 C          62.3797   81.2417   12.5545 C.ar    1  UNL1        0.0405
      3 C          62.7757   80.1682   13.5244 C.ar    1  UNL1        0.1596
      4 F          62.1339   78.8145   13.4481 F       1  UNL1       -0.2025
      5 C          63.8135   80.4483   14.5706 C.ar    1  UNL1        0.1316
      6 N          64.4552   81.8019   14.6469 N.ar    1  UNL1       -0.2073
      7 C          64.0592   82.8754   13.6771 C.ar    1  UNL1        0.2341
      8 N          61.9652   84.9212   12.1567 N.am    1  UNL1       -0.3024
      9 C          62.6254   83.6689   11.6609 C.2     1  UNL1        0.2504
     10 O          62.8896   83.4901   10.1953 O.2     1  UNL1       -0.2700
     11 H          61.7918   85.0385   13.1187 H       1  UNL1        0.1497
     12 C          60.7772   88.1418    9.2470 C.3     1  UNL1        0.0720
     13 C          61.5327   86.9384    8.7665 C.3     1  UNL1        0.0213
     14 C          61.9287   85.8649    9.7363 C.3     1  UNL1        0.0213
     15 C          61.5692   85.9948   11.1868 C.3     1  UNL1        0.0720
     16 C          60.8137   87.1982   11.6674 C.3     1  UNL1        0.0213
     17 C          60.4177   88.2717   10.6975 C.3     1  UNL1        0.0213
     18 C          59.3791   88.9211    7.2005 C.2     1  UNL1        0.2653
     19 O          58.7730   87.5531    7.0938 O.2     1  UNL1       -0.2684
     20 N          60.3812   89.2154    8.2771 N.am    1  UNL1       -0.3012
     21 H          60.7790   90.1132    8.3472 H       1  UNL1        0.1497
     22 C          59.6231   92.7548    3.5778 C.3     1  UNL1        0.0518
     23 C          59.0953   91.7568    4.5654 C.ar    1  UNL1        0.0577
     24 C          59.9179   90.8038    5.3812 C.ar    1  UNL1        0.0398
     25 C          58.9831   89.9947    6.2306 C.ar    1  UNL1        0.1551
     26 N          57.5830   90.4475    5.9400 N.ar    1  UNL1       -0.1649
     27 N          57.6523   91.5366    4.9108 N.ar    1  UNL1       -0.2527
     28 C          56.4838   92.2756    4.3293 C.3     1  UNL1        0.1533
     29 O          64.7010   84.2291   13.7534 O.3     1  UNL1       -0.4360
     30 C          64.1539   85.2668   14.6881 C.ar    1  UNL1        0.1472
     31 C          63.1410   84.8824   15.7257 C.ar    1  UNL1        0.0376
     32 C          62.5939   85.9201   16.6604 C.ar    1  UNL1        0.0031
     33 C          63.0597   87.3423   16.5577 C.ar    1  UNL1        0.0002
     34 C          64.0725   87.7267   15.5202 C.ar    1  UNL1        0.0030
     35 C          64.6196   86.6889   14.5855 C.ar    1  UNL1        0.0376
     36 C          64.5383   89.1489   15.4175 C.ar    1  UNL1        0.0001
     37 C          63.7863   90.2373   16.1245 C.ar    1  UNL1       -0.0003
     38 C          64.2520   91.6594   16.0218 C.ar    1  UNL1       -0.0043
     39 C          65.4698   91.9931   15.2121 C.ar    1  UNL1       -0.0221
     40 C          66.2218   90.9047   14.5051 C.ar    1  UNL1       -0.0043
     41 C          65.7561   89.4826   14.6078 C.ar    1  UNL1       -0.0003
     42 C          65.9356   93.4153   15.1094 C.3     1  UNL1        0.0278
     43 C          66.5464   93.9141   13.8334 C.3     1  UNL1        0.0220
     44 C          65.8671   93.6485   12.5227 C.3     1  UNL1        0.0725
     45 N          66.5964   93.8981   11.2359 N.3     1  UNL1       -0.2704
     46 C          67.3806   92.7935   10.5918 C.3     1  UNL1        0.0880
     47 C          68.1098   93.0430    9.3050 C.3     1  UNL1        0.0702
     48 C          68.8941   91.9383    8.6610 C.3     1  UNL1        0.0186
     49 N          68.0549   94.3972    8.6622 N.3     1  UNL1       -0.2974
     50 C          67.2707   95.5019    9.3063 C.3     1  UNL1        0.0702
     51 C          67.2157   96.8560    8.6635 C.3     1  UNL1        0.0186
     52 C          66.5414   95.2523   10.5931 C.3     1  UNL1        0.0880
     53 H          67.6650   94.2646    7.7291 H       1  UNL1        0.1232
@<TRIPOS>BOND
     1    22    23    1
     2    23    24   ar
     3    24    25   ar
     4    25    18    1
     5    18    19    2
     6    18    20   am
     7    12    20    1
     8    12    13    1
     9    13    14    1
    10    14    15    1
    11    15     8    1
    12     8     9   am
    13     9    10    2
    14     9     1    1
    15     1     2   ar
    16     2     3   ar
    17     3     4    1
    18     3     5   ar
    19     5     6   ar
    20     6     7   ar
    21     7    29    1
    22    29    30    1
    23    30    31   ar
    24    31    32   ar
    25    32    33   ar
    26    33    34   ar
    27    34    36    1
    28    36    37   ar
    29    37    38   ar
    30    38    39   ar
    31    39    42    1
    32    42    43    1
    33    43    44    1
    34    44    45    1
    35    45    46    1
    36    46    47    1
    37    47    48    1
    38    47    49    1
    39    49    50    1
    40    50    51    1
    41    50    52    1
    42    39    40   ar
    43    40    41   ar
    44    34    35   ar
    45    15    16    1
    46    16    17    1
    47    25    26   ar
    48    26    27   ar
    49    27    28    1
    50    27    23   ar
    51    17    12    1
    52     7     1   ar
    53    35    30   ar
    54    41    36   ar
    55    52    45    1
    56    20    21    1
    57     8    11    1
    58    49    53    1
@<TRIPOS>MOLECULE
*****
 53 58 0 0 0
SMALL
GASTEIGER

@<TRIPOS>ATOM
      1 C          62.9536   82.4299   12.7236 C.ar    1  UNL1        0.1090
      2 C          62.1182   81.1859   12.7915 C.ar    1  UNL1        0.0405
      3 C          62.4675   80.1002   13.7658 C.ar    1  UNL1        0.1596
      4 F          61.6321   78.8562   13.8337 F       1  UNL1       -0.2025
      5 C          63.6521   80.2585   14.6723 C.ar    1  UNL1        0.1316
      6 N          64.4874   81.5025   14.6044 N.ar    1  UNL1       -0.2073
      7 C          64.1382   82.5882   13.6301 C.ar    1  UNL1        0.2341
      8 N          61.9408   84.7713   12.2317 N.am    1  UNL1       -0.3024
      9 C          62.6044   83.5156   11.7493 C.2     1  UNL1        0.2504
     10 O          62.9187   83.3455   10.2925 O.2     1  UNL1       -0.2700
     11 H          61.7345   84.8829   13.1879 H       1  UNL1        0.1497
     12 C          60.8933   88.0284    9.3087 C.3     1  UNL1        0.0720
     13 C          61.9446   87.0171    8.9596 C.3     1  UNL1        0.0213
     14 C          62.2937   85.9314    9.9339 C.3     1  UNL1        0.0213
     15 C          61.5916   85.8571   11.2574 C.3     1  UNL1        0.0720
     16 C          60.5403   86.8684   11.6065 C.3     1  UNL1        0.0213
     17 C          60.1911   87.9540   10.6321 C.3     1  UNL1        0.0213
     18 C          59.5604   88.8465    7.2340 C.2     1  UNL1        0.2653
     19 O          58.9259   87.4932    7.1080 O.2     1  UNL1       -0.2684
     20 N          60.5440   89.1141    8.3344 N.am    1  UNL1       -0.3012
     21 H          60.9605   90.0024    8.4171 H       1  UNL1        0.1497
     22 C          56.8080   92.2735    4.3080 C.3     1  UNL1        0.0518
     23 C          57.9460   91.5074    4.9148 C.ar    1  UNL1        0.0577
     24 C          57.8284   90.4158    5.9369 C.ar    1  UNL1        0.0398
     25 C          59.2112   89.9322    6.2597 C.ar    1  UNL1        0.1551
     26 N          60.1833   90.7250    5.4372 N.ar    1  UNL1       -0.1649
     27 N          59.4014   91.6985    4.6060 N.ar    1  UNL1       -0.2527
     28 C          59.9743   92.6891    3.6363 C.3     1  UNL1        0.1533
     29 O          64.9736   83.8322   13.5622 O.3     1  UNL1       -0.4360
     30 C          64.5020   85.0897   14.2303 C.ar    1  UNL1        0.1472
     31 C          64.0911   85.0639   15.6727 C.ar    1  UNL1        0.0376
     32 C          63.6195   86.3213   16.3408 C.ar    1  UNL1        0.0031
     33 C          63.5587   87.6046   15.5665 C.ar    1  UNL1        0.0002
     34 C          63.9695   87.6304   14.1241 C.ar    1  UNL1        0.0030
     35 C          64.4412   86.3729   13.4560 C.ar    1  UNL1        0.0376
     36 C          63.9087   88.9137   13.3497 C.ar    1  UNL1        0.0001
     37 C          63.2319   88.9508   12.0116 C.ar    1  UNL1       -0.0003
     38 C          63.1710   90.2340   11.2373 C.ar    1  UNL1       -0.0043
     39 C          63.7871   91.4800   11.8010 C.ar    1  UNL1       -0.0221
     40 C          64.4640   91.4429   13.1391 C.ar    1  UNL1       -0.0043
     41 C          64.5248   90.1597   13.9134 C.ar    1  UNL1       -0.0003
     42 C          63.7263   92.7633   11.0266 C.3     1  UNL1        0.0278
     43 C          64.9831   93.3632   10.4693 C.3     1  UNL1        0.0220
     44 C          65.8885   94.1657   11.3560 C.3     1  UNL1        0.0725
     45 N          66.7907   93.4709   12.3323 N.3     1  UNL1       -0.2704
     46 C          67.8086   92.4843   11.8418 C.3     1  UNL1        0.0880
     47 C          68.7108   91.7895   12.8182 C.3     1  UNL1        0.0702
     48 C          69.7287   90.8029   12.3277 C.3     1  UNL1        0.0186
     49 N          68.5952   92.0813   14.2849 N.3     1  UNL1       -0.2974
     50 C          67.5773   93.0679   14.7754 C.3     1  UNL1        0.0702
     51 C          67.4617   93.3597   16.2422 C.3     1  UNL1        0.0186
     52 C          66.6751   93.7627   13.7991 C.3     1  UNL1        0.0880
     53 H          69.5068   92.4224   14.5900 H       1  UNL1        0.1232
@<TRIPOS>BOND
     1    22    23    1
     2    23    24   ar
     3    24    25   ar
     4    25    18    1
     5    18    19    2
     6    18    20   am
     7    12    20    1
     8    12    13    1
     9    13    14    1
    10    14    15    1
    11    15     8    1
    12     8     9   am
    13     9    10    2
    14     9     1    1
    15     1     2   ar
    16     2     3   ar
    17     3     4    1
    18     3     5   ar
    19     5     6   ar
    20     6     7   ar
    21     7    29    1
    22    29    30    1
    23    30    31   ar
    24    31    32   ar
    25    32    33   ar
    26    33    34   ar
    27    34    36    1
    28    36    37   ar
    29    37    38   ar
    30    38    39   ar
    31    39    42    1
    32    42    43    1
    33    43    44    1
    34    44    45    1
    35    45    46    1
    36    46    47    1
    37    47    48    1
    38    47    49    1
    39    49    50    1
    40    50    51    1
    41    50    52    1
    42    39    40   ar
    43    40    41   ar
    44    34    35   ar
    45    15    16    1
    46    16    17    1
    47    25    26   ar
    48    26    27   ar
    49    27    28    1
    50    27    23   ar
    51    17    12    1
    52     7     1   ar
    53    35    30   ar
    54    41    36   ar
    55    52    45    1
    56    20    21    1
    57     8    11    1
    58    49    53    1
