@<TRIPOS>MOLECULE
*****
 40 43 0 0 0
SMALL
GASTEIGER

@<TRIPOS>ATOM
      1 C          64.6590   90.1626   13.7161 C.ar    1  UNL1        0.0053
      2 C          63.7035   90.4617   12.5992 C.ar    1  UNL1        0.0033
      3 C          62.9636   89.3441   11.9258 C.ar    1  UNL1        0.0382
      4 C          63.1791   87.9275   12.3694 C.ar    1  UNL1        0.1529
      5 C          64.1346   87.6284   13.4863 C.ar    1  UNL1        0.0881
      6 C          64.8745   88.7459   14.1597 C.ar    1  UNL1        0.0181
      7 N          64.3501   86.2118   13.9298 N.am    1  UNL1       -0.2528
      8 C          63.6101   85.0942   13.2564 C.2     1  UNL1        0.2697
      9 O          63.8256   83.6776   13.7000 O.2     1  UNL1       -0.2704
     10 C          62.6546   85.3933   12.1394 C.3     1  UNL1        0.2197
     11 O          62.4391   86.8099   11.6959 O.3     1  UNL1       -0.4686
     12 C          66.5506   91.9435   13.6939 C.ar    1  UNL1        0.0645
     13 N          67.2906   93.0610   14.3673 N.ar    1  UNL1       -0.2183
     14 C          66.8791   93.5152   15.7365 C.ar    1  UNL1        0.2145
     15 N          67.6191   94.6328   16.4098 N.pl3   1  UNL1       -0.3274
     16 N          65.7275   92.8519   16.4321 N.ar    1  UNL1       -0.1995
     17 C          64.9875   91.7343   15.7586 C.ar    1  UNL1        0.1293
     18 N          63.8360   91.0710   16.4543 N.pl3   1  UNL1       -0.3425
     19 C          65.3990   91.2801   14.3896 C.ar    1  UNL1        0.0449
     20 H          68.3749   95.0681   15.9532 H       1  UNL1        0.1452
     21 H          67.3490   94.9309   17.3084 H       1  UNL1        0.1452
     22 H          63.5659   91.3691   17.3529 H       1  UNL1        0.1437
     23 H          63.3503   90.3375   16.0123 H       1  UNL1        0.1437
     24 C          66.9179   92.4477   11.1719 C.3     1  UNL1        0.0067
     25 C          66.9621   91.4893   12.3248 C.3     1  UNL1        0.0460
     26 C          62.5223   83.9005   12.2027 C.ar    1  UNL1        0.0264
     27 C          63.0438   83.0531   11.0802 C.ar    1  UNL1        0.0293
     28 C          62.9115   81.5603   11.1435 C.ar    1  UNL1        0.1422
     29 F          63.4331   80.7129   10.0209 F       1  UNL1       -0.2041
     30 C          62.2578   80.9148   12.3292 C.ar    1  UNL1        0.0592
     31 C          61.7363   81.7622   13.4516 C.ar    1  UNL1        0.1422
     32 F          61.0826   81.1167   14.6374 F       1  UNL1       -0.2041
     33 C          61.8686   83.2550   13.3885 C.ar    1  UNL1        0.0293
     34 C          61.6532   85.1739   11.0444 C.3     1  UNL1        0.0535
     35 C          61.4200   86.2412   10.0165 C.3     1  UNL1        0.0046
     36 C          65.3056   85.9127   15.0467 C.3     1  UNL1        0.1010
     37 C          64.7830   85.6076   16.4193 C.3     1  UNL1        0.0539
     38 C          63.3155   85.3785   16.6293 C.3     1  UNL1        0.1440
     39 O          62.4027   86.5426   16.8776 O.3     1  UNL1       -0.3510
     40 C          62.9735   87.8725   17.2717 C.3     1  UNL1        0.1741
@<TRIPOS>BOND
     1    24    25    1
     2    25    12    1
     3    12    13   ar
     4    13    14   ar
     5    14    15    1
     6    14    16   ar
     7    16    17   ar
     8    17    18    1
     9    17    19   ar
    10    19     1    1
    11     1     2   ar
    12     2     3   ar
    13     3     4   ar
    14     4     5   ar
    15     5     6   ar
    16     5     7    1
    17     7    36    1
    18    36    37    1
    19    37    38    1
    20    38    39    1
    21    39    40    1
    22     7     8   am
    23     8     9    2
    24     8    10    1
    25    10    34    1
    26    34    35    1
    27    10    26    1
    28    26    27   ar
    29    27    28   ar
    30    28    29    1
    31    28    30   ar
    32    30    31   ar
    33    31    32    1
    34    31    33   ar
    35    10    11    1
    36    19    12   ar
    37     6     1   ar
    38    33    26   ar
    39    11     4    1
    40    15    20    1
    41    15    21    1
    42    18    22    1
    43    18    23    1
@<TRIPOS>MOLECULE
*****
 40 43 0 0 0
SMALL
GASTEIGER

@<TRIPOS>ATOM
      1 C          64.1612   89.4762   13.0507 C.ar    1  UNL1        0.0053
      2 C          64.4391   89.2860   14.5123 C.ar    1  UNL1        0.0033
      3 C          64.2106   87.9483   15.1513 C.ar    1  UNL1        0.0382
      4 C          63.7044   86.8008   14.3285 C.ar    1  UNL1        0.1529
      5 C          63.4266   86.9910   12.8668 C.ar    1  UNL1        0.0881
      6 C          63.6550   88.3287   12.2279 C.ar    1  UNL1        0.0181
      7 N          62.9203   85.8435   12.0441 N.am    1  UNL1       -0.2528
      8 C          62.6919   84.5058   12.6830 C.2     1  UNL1        0.2697
      9 O          62.1856   83.3583   11.8602 O.2     1  UNL1       -0.2704
     10 C          62.9697   84.3155   14.1448 C.3     1  UNL1        0.2197
     11 O          63.4759   85.4630   14.9675 O.3     1  UNL1       -0.4686
     12 C          65.2570   91.8316   13.0916 C.ar    1  UNL1        0.0645
     13 N          65.4854   93.1693   12.4526 N.ar    1  UNL1       -0.2183
     14 C          64.8466   93.4895   11.1337 C.ar    1  UNL1        0.2145
     15 N          65.0750   94.8272   10.4948 N.pl3   1  UNL1       -0.3274
     16 N          63.9793   92.4719   10.4538 N.ar    1  UNL1       -0.1995
     17 C          63.7509   91.1341   11.0928 C.ar    1  UNL1        0.1293
     18 N          62.8836   90.1165   10.4129 N.pl3   1  UNL1       -0.3425
     19 C          64.3897   90.8140   12.4116 C.ar    1  UNL1        0.0449
     20 H          65.6442   95.4951   10.9410 H       1  UNL1        0.1452
     21 H          64.6557   95.0373    9.6292 H       1  UNL1        0.1452
     22 H          62.4643   90.3266    9.5473 H       1  UNL1        0.1437
     23 H          62.7337   89.2385   10.8323 H       1  UNL1        0.1437
     24 C          67.3851   91.6028   14.5643 C.3     1  UNL1        0.0067
     25 C          65.8958   91.5115   14.4105 C.3     1  UNL1        0.0460
     26 C          62.5037   82.9355   13.7864 C.ar    1  UNL1        0.0264
     27 C          61.2792   82.3646   14.4379 C.ar    1  UNL1        0.0293
     28 C          60.8132   80.9845   14.0795 C.ar    1  UNL1        0.1422
     29 F          59.5886   80.4137   14.7312 F       1  UNL1       -0.2041
     30 C          61.5718   80.1754   13.0697 C.ar    1  UNL1        0.0592
     31 C          62.7963   80.7464   12.4182 C.ar    1  UNL1        0.1422
     32 F          63.5549   79.9372   11.4083 F       1  UNL1       -0.2041
     33 C          63.2624   82.1264   12.7765 C.ar    1  UNL1        0.0293
     34 C          63.0857   83.6460   15.4820 C.3     1  UNL1        0.0535
     35 C          62.9135   84.4464   16.7389 C.3     1  UNL1        0.0046
     36 C          62.6425   86.0337   10.5824 C.3     1  UNL1        0.1010
     37 C          61.2278   86.1430   10.0958 C.3     1  UNL1        0.0539
     38 C          60.4763   87.4310   10.2579 C.3     1  UNL1        0.1440
     39 O          60.1099   87.9182   11.6285 O.3     1  UNL1       -0.3510
     40 C          59.7659   89.3621   11.8441 C.3     1  UNL1        0.1741
@<TRIPOS>BOND
     1    24    25    1
     2    25    12    1
     3    12    13   ar
     4    13    14   ar
     5    14    15    1
     6    14    16   ar
     7    16    17   ar
     8    17    18    1
     9    17    19   ar
    10    19     1    1
    11     1     2   ar
    12     2     3   ar
    13     3     4   ar
    14     4     5   ar
    15     5     6   ar
    16     5     7    1
    17     7    36    1
    18    36    37    1
    19    37    38    1
    20    38    39    1
    21    39    40    1
    22     7     8   am
    23     8     9    2
    24     8    10    1
    25    10    34    1
    26    34    35    1
    27    10    26    1
    28    26    27   ar
    29    27    28   ar
    30    28    29    1
    31    28    30   ar
    32    30    31   ar
    33    31    32    1
    34    31    33   ar
    35    10    11    1
    36    19    12   ar
    37     6     1   ar
    38    33    26   ar
    39    11     4    1
    40    15    20    1
    41    15    21    1
    42    18    22    1
    43    18    23    1
@<TRIPOS>MOLECULE
*****
 40 43 0 0 0
SMALL
GASTEIGER

@<TRIPOS>ATOM
      1 C          62.6465   84.2549   12.5083 C.ar    1  UNL1        0.0053
      2 C          61.9042   84.9203   11.3875 C.ar    1  UNL1        0.0033
      3 C          62.0009   86.4056   11.2015 C.ar    1  UNL1        0.0382
      4 C          62.8400   87.2254   12.1363 C.ar    1  UNL1        0.1529
      5 C          63.5824   86.5600   13.2570 C.ar    1  UNL1        0.0881
      6 C          63.4857   85.0748   13.4430 C.ar    1  UNL1        0.0181
      7 N          64.4215   87.3799   14.1918 N.am    1  UNL1       -0.2528
      8 C          64.5182   88.8651   14.0058 C.2     1  UNL1        0.2697
      9 O          65.3573   89.6850   14.9406 O.2     1  UNL1       -0.2704
     10 C          63.7759   89.5306   12.8850 C.3     1  UNL1        0.2197
     11 O          62.9368   88.7108   11.9503 O.3     1  UNL1       -0.4686
     12 C          62.8593   81.8489   11.5513 C.ar    1  UNL1        0.0645
     13 N          62.7626   80.3636   11.7372 N.ar    1  UNL1       -0.2183
     14 C          62.3564   79.7990   13.0663 C.ar    1  UNL1        0.2145
     15 N          62.2597   78.3138   13.2523 N.pl3   1  UNL1       -0.3274
     16 N          62.0470   80.7198   14.2093 N.ar    1  UNL1       -0.1995
     17 C          62.1437   82.2051   14.0233 C.ar    1  UNL1        0.1293
     18 N          61.8342   83.1258   15.1663 N.pl3   1  UNL1       -0.3425
     19 C          62.5498   82.7696   12.6943 C.ar    1  UNL1        0.0449
     20 H          62.4628   77.7095   12.5021 H       1  UNL1        0.1452
     21 H          61.9931   77.9432   14.1245 H       1  UNL1        0.1452
     22 H          61.5676   82.7553   16.0386 H       1  UNL1        0.1437
     23 H          61.8977   84.1006   15.0442 H       1  UNL1        0.1437
     24 C          64.6367   82.9941   10.0414 C.3     1  UNL1        0.0067
     25 C          63.2655   82.4135   10.2222 C.3     1  UNL1        0.0460
     26 C          64.4369   90.7256   13.5054 C.ar    1  UNL1        0.0264
     27 C          65.3303   91.6021   12.6785 C.ar    1  UNL1        0.0293
     28 C          65.9913   92.7972   13.2989 C.ar    1  UNL1        0.1422
     29 F          66.8848   93.6735   12.4719 F       1  UNL1       -0.2041
     30 C          65.7589   93.1159   14.7460 C.ar    1  UNL1        0.0592
     31 C          64.8655   92.2394   15.5729 C.ar    1  UNL1        0.1422
     32 F          64.6331   92.5582   17.0201 F       1  UNL1       -0.2041
     33 C          64.2044   91.0444   14.9526 C.ar    1  UNL1        0.0293
     34 C          63.2630   90.6111   11.9797 C.3     1  UNL1        0.0535
     35 C          62.7617   90.2656   10.6088 C.3     1  UNL1        0.0046
     36 C          65.1639   86.7145   15.3125 C.3     1  UNL1        0.1010
     37 C          64.5015   85.6322   16.1125 C.3     1  UNL1        0.0539
     38 C          63.4147   85.9780   17.0869 C.3     1  UNL1        0.1440
     39 O          62.5032   87.1374   16.8132 O.3     1  UNL1       -0.3510
     40 C          62.9240   88.5273   17.1889 C.3     1  UNL1        0.1741
@<TRIPOS>BOND
     1    24    25    1
     2    25    12    1
     3    12    13   ar
     4    13    14   ar
     5    14    15    1
     6    14    16   ar
     7    16    17   ar
     8    17    18    1
     9    17    19   ar
    10    19     1    1
    11     1     2   ar
    12     2     3   ar
    13     3     4   ar
    14     4     5   ar
    15     5     6   ar
    16     5     7    1
    17     7    36    1
    18    36    37    1
    19    37    38    1
    20    38    39    1
    21    39    40    1
    22     7     8   am
    23     8     9    2
    24     8    10    1
    25    10    34    1
    26    34    35    1
    27    10    26    1
    28    26    27   ar
    29    27    28   ar
    30    28    29    1
    31    28    30   ar
    32    30    31   ar
    33    31    32    1
    34    31    33   ar
    35    10    11    1
    36    19    12   ar
    37     6     1   ar
    38    33    26   ar
    39    11     4    1
    40    15    20    1
    41    15    21    1
    42    18    22    1
    43    18    23    1
@<TRIPOS>MOLECULE
*****
 40 43 0 0 0
SMALL
GASTEIGER

@<TRIPOS>ATOM
      1 C          63.7215   89.1114   13.7415 C.ar    1  UNL1        0.0053
      2 C          63.1510   89.3803   12.3805 C.ar    1  UNL1        0.0033
      3 C          62.7788   88.2368   11.4841 C.ar    1  UNL1        0.0382
      4 C          62.9771   86.8244   11.9485 C.ar    1  UNL1        0.1529
      5 C          63.5476   86.5555   13.3094 C.ar    1  UNL1        0.0881
      6 C          63.9198   87.6990   14.2059 C.ar    1  UNL1        0.0181
      7 N          63.7459   85.1430   13.7739 N.am    1  UNL1       -0.2528
      8 C          63.3736   83.9995   12.8774 C.2     1  UNL1        0.2697
      9 O          63.5719   82.5871   13.3419 O.2     1  UNL1       -0.2704
     10 C          62.8031   84.2683   11.5164 C.3     1  UNL1        0.2197
     11 O          62.6048   85.6808   11.0520 O.3     1  UNL1       -0.4686
     12 C          65.0853   91.2802   14.1734 C.ar    1  UNL1        0.0645
     13 N          65.4576   92.4237   15.0699 N.ar    1  UNL1       -0.2183
     14 C          64.8384   92.5421   16.4310 C.ar    1  UNL1        0.2145
     15 N          65.2106   93.6856   17.3275 N.pl3   1  UNL1       -0.3274
     16 N          63.8468   91.5169   16.8956 N.ar    1  UNL1       -0.1995
     17 C          63.4746   90.3733   15.9991 C.ar    1  UNL1        0.1293
     18 N          62.4830   89.3481   16.4636 N.pl3   1  UNL1       -0.3425
     19 C          64.0938   90.2550   14.6380 C.ar    1  UNL1        0.0449
     20 H          65.8614   94.3585   17.0226 H       1  UNL1        0.1452
     21 H          64.8042   93.7633   18.2208 H       1  UNL1        0.1452
     22 H          62.0766   89.4258   17.3569 H       1  UNL1        0.1437
     23 H          62.2387   88.5976   15.8752 H       1  UNL1        0.1437
     24 C          65.5872   92.2928   11.8340 C.3     1  UNL1        0.0067
     25 C          65.7046   91.1618   12.8123 C.3     1  UNL1        0.0460
     26 C          62.8032   82.7684   11.5071 C.ar    1  UNL1        0.0264
     27 C          62.2119   82.0112   12.6590 C.ar    1  UNL1        0.0293
     28 C          62.2121   80.5112   12.6497 C.ar    1  UNL1        0.1422
     29 F          61.6208   79.7540   13.8017 F       1  UNL1       -0.2041
     30 C          62.8036   79.7684   11.4885 C.ar    1  UNL1        0.0592
     31 C          63.3949   80.5257   10.3366 C.ar    1  UNL1        0.1422
     32 F          63.9863   79.7829    9.1753 F       1  UNL1       -0.2041
     33 C          63.3947   82.0256   10.3458 C.ar    1  UNL1        0.0293
     34 C          62.2326   84.0163   10.1522 C.3     1  UNL1        0.0535
     35 C          62.5506   84.9501    9.0221 C.3     1  UNL1        0.0046
     36 C          64.3164   84.8741   15.1348 C.3     1  UNL1        0.1010
     37 C          63.4068   84.5122   16.2713 C.3     1  UNL1        0.0539
     38 C          62.0282   85.0989   16.3446 C.3     1  UNL1        0.1440
     39 O          61.7515   86.2514   17.2640 O.3     1  UNL1       -0.3510
     40 C          62.7479   86.6227   18.3220 C.3     1  UNL1        0.1741
@<TRIPOS>BOND
     1    24    25    1
     2    25    12    1
     3    12    13   ar
     4    13    14   ar
     5    14    15    1
     6    14    16   ar
     7    16    17   ar
     8    17    18    1
     9    17    19   ar
    10    19     1    1
    11     1     2   ar
    12     2     3   ar
    13     3     4   ar
    14     4     5   ar
    15     5     6   ar
    16     5     7    1
    17     7    36    1
    18    36    37    1
    19    37    38    1
    20    38    39    1
    21    39    40    1
    22     7     8   am
    23     8     9    2
    24     8    10    1
    25    10    34    1
    26    34    35    1
    27    10    26    1
    28    26    27   ar
    29    27    28   ar
    30    28    29    1
    31    28    30   ar
    32    30    31   ar
    33    31    32    1
    34    31    33   ar
    35    10    11    1
    36    19    12   ar
    37     6     1   ar
    38    33    26   ar
    39    11     4    1
    40    15    20    1
    41    15    21    1
    42    18    22    1
    43    18    23    1
@<TRIPOS>MOLECULE
*****
 40 43 0 0 0
SMALL
GASTEIGER

@<TRIPOS>ATOM
      1 C          62.7821   84.0308   11.6912 C.ar    1  UNL1        0.0053
      2 C          62.0506   84.8573   10.6755 C.ar    1  UNL1        0.0033
      3 C          62.0706   86.3541   10.7716 C.ar    1  UNL1        0.0382
      4 C          62.8222   87.0243   11.8834 C.ar    1  UNL1        0.1529
      5 C          63.5536   86.1977   12.8991 C.ar    1  UNL1        0.0881
      6 C          63.5336   84.7010   12.8030 C.ar    1  UNL1        0.0181
      7 N          64.3052   86.8679   14.0108 N.am    1  UNL1       -0.2528
      8 C          64.3252   88.3647   14.1069 C.2     1  UNL1        0.2697
      9 O          65.0767   89.0349   15.2187 O.2     1  UNL1       -0.2704
     10 C          63.5937   89.1913   13.0912 C.3     1  UNL1        0.2197
     11 O          62.8422   88.5211   11.9794 O.3     1  UNL1       -0.4686
     12 C          62.1870   81.7182   12.7150 C.ar    1  UNL1        0.0645
     13 N          62.1670   80.2214   12.6191 N.ar    1  UNL1       -0.2183
     14 C          62.7220   79.5403   11.4032 C.ar    1  UNL1        0.2145
     15 N          62.7019   78.0436   11.3073 N.pl3   1  UNL1       -0.3274
     16 N          63.2970   80.3561   10.2834 N.ar    1  UNL1       -0.1995
     17 C          63.3170   81.8529   10.3794 C.ar    1  UNL1        0.1293
     18 N          63.8920   82.6686    9.2596 N.pl3   1  UNL1       -0.3425
     19 C          62.7620   82.5339   11.5952 C.ar    1  UNL1        0.0449
     20 H          62.3245   77.5082   12.0422 H       1  UNL1        0.1452
     21 H          63.0662   77.5966   10.5093 H       1  UNL1        0.1452
     22 H          64.2562   82.2216    8.4617 H       1  UNL1        0.1437
     23 H          63.9052   83.6510    9.3226 H       1  UNL1        0.1437
     24 C          62.4842   82.5607   15.1547 C.3     1  UNL1        0.0067
     25 C          61.6321   82.3993   13.9309 C.3     1  UNL1        0.0460
     26 C          64.1594   90.2799   13.9543 C.ar    1  UNL1        0.0264
     27 C          63.5775   90.5390   15.3123 C.ar    1  UNL1        0.0293
     28 C          64.1432   91.6276   16.1754 C.ar    1  UNL1        0.1422
     29 F          63.5612   91.8867   17.5334 F       1  UNL1       -0.2041
     30 C          65.2908   92.4570   15.6806 C.ar    1  UNL1        0.0592
     31 C          65.8728   92.1978   14.3226 C.ar    1  UNL1        0.1422
     32 F          67.0205   93.0273   13.8277 F       1  UNL1       -0.2041
     33 C          65.3071   91.1093   13.4594 C.ar    1  UNL1        0.0293
     34 C          63.0587   90.3959   12.3752 C.3     1  UNL1        0.0535
     35 C          62.8615   90.3587   10.8886 C.3     1  UNL1        0.0046
     36 C          65.0366   86.0414   15.0266 C.3     1  UNL1        0.1010
     37 C          64.3179   85.5406   16.2442 C.3     1  UNL1        0.0539
     38 C          62.8183   85.5339   16.2802 C.3     1  UNL1        0.1440
     39 O          62.0964   85.9337   17.5328 O.3     1  UNL1       -0.3510
     40 C          62.7086   86.9388   18.4629 C.3     1  UNL1        0.1741
@<TRIPOS>BOND
     1    24    25    1
     2    25    12    1
     3    12    13   ar
     4    13    14   ar
     5    14    15    1
     6    14    16   ar
     7    16    17   ar
     8    17    18    1
     9    17    19   ar
    10    19     1    1
    11     1     2   ar
    12     2     3   ar
    13     3     4   ar
    14     4     5   ar
    15     5     6   ar
    16     5     7    1
    17     7    36    1
    18    36    37    1
    19    37    38    1
    20    38    39    1
    21    39    40    1
    22     7     8   am
    23     8     9    2
    24     8    10    1
    25    10    34    1
    26    34    35    1
    27    10    26    1
    28    26    27   ar
    29    27    28   ar
    30    28    29    1
    31    28    30   ar
    32    30    31   ar
    33    31    32    1
    34    31    33   ar
    35    10    11    1
    36    19    12   ar
    37     6     1   ar
    38    33    26   ar
    39    11     4    1
    40    15    20    1
    41    15    21    1
    42    18    22    1
    43    18    23    1
@<TRIPOS>MOLECULE
*****
 40 43 0 0 0
SMALL
GASTEIGER

@<TRIPOS>ATOM
      1 C          57.6453   93.5886   -3.2692 C.ar    1  UNL1        0.0053
      2 C          56.9873   94.6418   -2.4279 C.ar    1  UNL1        0.0033
      3 C          57.8006   95.4371   -1.4503 C.ar    1  UNL1        0.0382
      4 C          59.2720   95.1792   -1.3139 C.ar    1  UNL1        0.1529
      5 C          59.9300   94.1261   -2.1551 C.ar    1  UNL1        0.0881
      6 C          59.1166   93.3307   -3.1328 C.ar    1  UNL1        0.0181
      7 N          61.4013   93.8682   -2.0187 N.am    1  UNL1       -0.2528
      8 C          62.2147   94.6635   -1.0411 C.2     1  UNL1        0.2697
      9 O          63.6861   94.4056   -0.9047 O.2     1  UNL1       -0.2704
     10 C          61.5567   95.7168   -0.1997 C.3     1  UNL1        0.2197
     11 O          60.0853   95.9746   -0.3361 O.3     1  UNL1       -0.4686
     12 C          56.6739   93.2755   -5.6584 C.ar    1  UNL1        0.0645
     13 N          55.8606   92.4802   -6.6361 N.ar    1  UNL1       -0.2183
     14 C          55.2052   91.2025   -6.2023 C.ar    1  UNL1        0.2145
     15 N          54.3919   90.4072   -7.1800 N.pl3   1  UNL1       -0.3274
     16 N          55.3632   90.7202   -4.7908 N.ar    1  UNL1       -0.1995
     17 C          56.1766   91.5156   -3.8131 C.ar    1  UNL1        0.1293
     18 N          56.3346   91.0333   -2.4015 N.pl3   1  UNL1       -0.3425
     19 C          56.8319   92.7932   -4.2469 C.ar    1  UNL1        0.0449
     20 H          54.2882   90.7237   -8.1065 H       1  UNL1        0.1452
     21 H          53.9618   89.5686   -6.8953 H       1  UNL1        0.1452
     22 H          55.9045   90.1947   -2.1168 H       1  UNL1        0.1437
     23 H          56.8684   91.5553   -1.7598 H       1  UNL1        0.1437
     24 C          56.5929   95.5086   -6.9838 C.3     1  UNL1        0.0067
     25 C          57.3292   94.5532   -6.0922 C.3     1  UNL1        0.0460
     26 C          62.9700   95.8395    0.2876 C.ar    1  UNL1        0.0264
     27 C          64.0510   96.2863   -0.6514 C.ar    1  UNL1        0.0293
     28 C          65.4643   96.4090   -0.1640 C.ar    1  UNL1        0.1422
     29 F          66.5453   96.8559   -1.1032 F       1  UNL1       -0.2041
     30 C          65.7966   96.0849    1.2622 C.ar    1  UNL1        0.0592
     31 C          64.7156   95.6381    2.2012 C.ar    1  UNL1        0.1422
     32 F          65.0480   95.3139    3.6276 F       1  UNL1       -0.2041
     33 C          63.3023   95.5153    1.7140 C.ar    1  UNL1        0.0293
     34 C          61.3895   96.8126    0.8108 C.3     1  UNL1        0.0535
     35 C          60.2575   96.7601    1.7936 C.3     1  UNL1        0.0046
     36 C          62.0593   92.8150   -2.8600 C.3     1  UNL1        0.1010
     37 C          62.9620   93.2133   -3.9899 C.3     1  UNL1        0.0539
     38 C          64.3482   92.6470   -4.0778 C.3     1  UNL1        0.1440
     39 O          65.1372   92.7885   -5.3456 O.3     1  UNL1       -0.3510
     40 C          65.1100   91.6951   -6.3720 C.3     1  UNL1        0.1741
@<TRIPOS>BOND
     1    24    25    1
     2    25    12    1
     3    12    13   ar
     4    13    14   ar
     5    14    15    1
     6    14    16   ar
     7    16    17   ar
     8    17    18    1
     9    17    19   ar
    10    19     1    1
    11     1     2   ar
    12     2     3   ar
    13     3     4   ar
    14     4     5   ar
    15     5     6   ar
    16     5     7    1
    17     7    36    1
    18    36    37    1
    19    37    38    1
    20    38    39    1
    21    39    40    1
    22     7     8   am
    23     8     9    2
    24     8    10    1
    25    10    34    1
    26    34    35    1
    27    10    26    1
    28    26    27   ar
    29    27    28   ar
    30    28    29    1
    31    28    30   ar
    32    30    31   ar
    33    31    32    1
    34    31    33   ar
    35    10    11    1
    36    19    12   ar
    37     6     1   ar
    38    33    26   ar
    39    11     4    1
    40    15    20    1
    41    15    21    1
    42    18    22    1
    43    18    23    1
@<TRIPOS>MOLECULE
*****
 40 43 0 0 0
SMALL
GASTEIGER

@<TRIPOS>ATOM
      1 C          64.1705   89.4665   13.1045 C.ar    1  UNL1        0.0053
      2 C          64.4121   89.2848   14.5737 C.ar    1  UNL1        0.0033
      3 C          64.1671   87.9510   15.2147 C.ar    1  UNL1        0.0382
      4 C          63.6805   86.7989   14.3864 C.ar    1  UNL1        0.1529
      5 C          63.4389   86.9807   12.9172 C.ar    1  UNL1        0.0881
      6 C          63.6839   88.3145   12.2763 C.ar    1  UNL1        0.0181
      7 N          62.9522   85.8286   12.0890 N.am    1  UNL1       -0.2528
      8 C          62.7072   84.4948   12.7300 C.2     1  UNL1        0.2697
      9 O          62.2206   83.3427   11.9018 O.2     1  UNL1       -0.2704
     10 C          62.9488   84.3130   14.1992 C.3     1  UNL1        0.2197
     11 O          63.4354   85.4650   15.0275 O.3     1  UNL1       -0.4686
     12 C          63.6901   91.1719   11.2042 C.ar    1  UNL1        0.0645
     13 N          63.9351   92.5057   10.5632 N.ar    1  UNL1       -0.2183
     14 C          64.9056   93.4680   11.1814 C.ar    1  UNL1        0.2145
     15 N          65.1505   94.8018   10.5404 N.pl3   1  UNL1       -0.3274
     16 N          65.6310   93.0965   12.4407 N.ar    1  UNL1       -0.1995
     17 C          65.3860   91.7627   13.0817 C.ar    1  UNL1        0.1293
     18 N          66.1114   91.3912   14.3409 N.pl3   1  UNL1       -0.3425
     19 C          64.4155   90.8004   12.4635 C.ar    1  UNL1        0.0449
     20 H          64.6744   95.0456    9.7139 H       1  UNL1        0.1452
     21 H          65.7875   95.4334   10.9461 H       1  UNL1        0.1452
     22 H          66.7484   92.0228   14.7467 H       1  UNL1        0.1437
     23 H          65.9506   90.5157   14.7617 H       1  UNL1        0.1437
     24 C          61.2440   90.4231   10.7502 C.3     1  UNL1        0.0067
     25 C          62.7196   90.2095   10.5860 C.3     1  UNL1        0.0460
     26 C          62.4909   82.9312   13.8377 C.ar    1  UNL1        0.0264
     27 C          63.2649   82.1216   12.8399 C.ar    1  UNL1        0.0293
     28 C          62.8069   80.7397   12.4783 C.ar    1  UNL1        0.1422
     29 F          63.5810   79.9302   11.4805 F       1  UNL1       -0.2041
     30 C          61.5750   80.1674   13.1144 C.ar    1  UNL1        0.0592
     31 C          60.8010   80.9770   14.1121 C.ar    1  UNL1        0.1422
     32 F          59.5689   80.4047   14.7483 F       1  UNL1       -0.2041
     33 C          61.2588   82.3589   14.4738 C.ar    1  UNL1        0.0293
     34 C          63.0314   83.6513   15.5429 C.3     1  UNL1        0.0535
     35 C          62.8650   84.4659   16.7915 C.3     1  UNL1        0.0046
     36 C          62.7106   86.0103   10.6198 C.3     1  UNL1        0.1010
     37 C          61.3462   86.3896   10.1254 C.3     1  UNL1        0.0539
     38 C          61.2035   87.2730    8.9215 C.3     1  UNL1        0.1440
     39 O          59.8392   87.6621    8.4343 O.3     1  UNL1       -0.3510
     40 C          58.9643   86.6453    7.7632 C.3     1  UNL1        0.1741
@<TRIPOS>BOND
     1    24    25    1
     2    25    12    1
     3    12    13   ar
     4    13    14   ar
     5    14    15    1
     6    14    16   ar
     7    16    17   ar
     8    17    18    1
     9    17    19   ar
    10    19     1    1
    11     1     2   ar
    12     2     3   ar
    13     3     4   ar
    14     4     5   ar
    15     5     6   ar
    16     5     7    1
    17     7    36    1
    18    36    37    1
    19    37    38    1
    20    38    39    1
    21    39    40    1
    22     7     8   am
    23     8     9    2
    24     8    10    1
    25    10    34    1
    26    34    35    1
    27    10    26    1
    28    26    27   ar
    29    27    28   ar
    30    28    29    1
    31    28    30   ar
    32    30    31   ar
    33    31    32    1
    34    31    33   ar
    35    10    11    1
    36    19    12   ar
    37     6     1   ar
    38    33    26   ar
    39    11     4    1
    40    15    20    1
    41    15    21    1
    42    18    22    1
    43    18    23    1
@<TRIPOS>MOLECULE
*****
 40 43 0 0 0
SMALL
GASTEIGER

@<TRIPOS>ATOM
      1 C          64.3527   89.7680   13.5369 C.ar    1  UNL1        0.0053
      2 C          63.4356   90.0200   12.3770 C.ar    1  UNL1        0.0033
      3 C          62.7685   88.8688   11.6845 C.ar    1  UNL1        0.0382
      4 C          63.0185   87.4656   12.1519 C.ar    1  UNL1        0.1529
      5 C          63.9356   87.2136   13.3117 C.ar    1  UNL1        0.0881
      6 C          64.6027   88.3648   14.0043 C.ar    1  UNL1        0.0181
      7 N          64.1856   85.8103   13.7791 N.am    1  UNL1       -0.2528
      8 C          63.5185   84.6591   13.0866 C.2     1  UNL1        0.2697
      9 O          63.7685   83.2559   13.5539 O.2     1  UNL1       -0.2704
     10 C          62.6014   84.9111   11.9266 C.3     1  UNL1        0.2197
     11 O          62.3514   86.3143   11.4593 O.3     1  UNL1       -0.4686
     12 C          64.7592   91.1720   15.6849 C.ar    1  UNL1        0.0645
     13 N          65.4263   92.3231   16.3775 N.ar    1  UNL1       -0.2183
     14 C          66.3541   93.2217   15.6147 C.ar    1  UNL1        0.2145
     15 N          67.0212   94.3729   16.3073 N.pl3   1  UNL1       -0.3274
     16 N          66.6148   92.9690   14.1593 N.ar    1  UNL1       -0.1995
     17 C          65.9477   91.8177   13.4667 C.ar    1  UNL1        0.1293
     18 N          66.2084   91.5650   12.0113 N.pl3   1  UNL1       -0.3425
     19 C          65.0199   90.9193   14.2295 C.ar    1  UNL1        0.0449
     20 H          66.8501   94.5387   17.2625 H       1  UNL1        0.1452
     21 H          67.6302   94.9626   15.8066 H       1  UNL1        0.1452
     22 H          66.8173   92.1547   11.5107 H       1  UNL1        0.1437
     23 H          65.7705   90.8094   11.5567 H       1  UNL1        0.1437
     24 C          62.4323   90.0484   15.9557 C.3     1  UNL1        0.0067
     25 C          63.8313   90.2734   16.4477 C.3     1  UNL1        0.0460
     26 C          62.5235   83.4150   12.0000 C.ar    1  UNL1        0.0264
     27 C          61.9199   82.7535   13.2034 C.ar    1  UNL1        0.0293
     28 C          61.8420   81.2573   13.2767 C.ar    1  UNL1        0.1422
     29 F          61.2383   80.5958   14.4802 F       1  UNL1       -0.2041
     30 C          62.3677   80.4226   12.1468 C.ar    1  UNL1        0.0592
     31 C          62.9713   81.0840   10.9435 C.ar    1  UNL1        0.1422
     32 F          63.4970   80.2493    9.8135 F       1  UNL1       -0.2041
     33 C          63.0492   82.5802   10.8700 C.ar    1  UNL1        0.0293
     34 C          61.6572   84.6435   10.7922 C.3     1  UNL1        0.0535
     35 C          61.4087   85.7011    9.7579 C.3     1  UNL1        0.0046
     36 C          65.1027   85.5583   14.9390 C.3     1  UNL1        0.1010
     37 C          64.5342   85.3134   16.3052 C.3     1  UNL1        0.0539
     38 C          63.5470   86.2792   16.8910 C.3     1  UNL1        0.1440
     39 O          62.0758   86.0522   16.7064 O.3     1  UNL1       -0.3510
     40 C          61.5926   84.8821   15.9019 C.3     1  UNL1        0.1741
@<TRIPOS>BOND
     1    24    25    1
     2    25    12    1
     3    12    13   ar
     4    13    14   ar
     5    14    15    1
     6    14    16   ar
     7    16    17   ar
     8    17    18    1
     9    17    19   ar
    10    19     1    1
    11     1     2   ar
    12     2     3   ar
    13     3     4   ar
    14     4     5   ar
    15     5     6   ar
    16     5     7    1
    17     7    36    1
    18    36    37    1
    19    37    38    1
    20    38    39    1
    21    39    40    1
    22     7     8   am
    23     8     9    2
    24     8    10    1
    25    10    34    1
    26    34    35    1
    27    10    26    1
    28    26    27   ar
    29    27    28   ar
    30    28    29    1
    31    28    30   ar
    32    30    31   ar
    33    31    32    1
    34    31    33   ar
    35    10    11    1
    36    19    12   ar
    37     6     1   ar
    38    33    26   ar
    39    11     4    1
    40    15    20    1
    41    15    21    1
    42    18    22    1
    43    18    23    1
@<TRIPOS>MOLECULE
*****
 40 43 0 0 0
SMALL
GASTEIGER

@<TRIPOS>ATOM
      1 C          63.1645   82.4284   12.0701 C.ar    1  UNL1        0.0053
      2 C          63.7969   82.7792   13.3842 C.ar    1  UNL1        0.0033
      3 C          63.9278   84.2163   13.7935 C.ar    1  UNL1        0.0382
      4 C          63.4263   85.3025   12.8888 C.ar    1  UNL1        0.1529
      5 C          62.7938   84.9517   11.5747 C.ar    1  UNL1        0.0881
      6 C          62.6629   83.5146   11.1654 C.ar    1  UNL1        0.0181
      7 N          62.2922   86.0379   10.6700 N.am    1  UNL1       -0.2528
      8 C          62.4231   87.4750   11.0793 C.2     1  UNL1        0.2697
      9 O          61.9215   88.5612   10.1745 O.2     1  UNL1       -0.2704
     10 C          63.0556   87.8259   12.3934 C.3     1  UNL1        0.2197
     11 O          63.5572   86.7397   13.2982 O.3     1  UNL1       -0.4686
     12 C          62.4790   79.9844   12.6245 C.ar    1  UNL1        0.0645
     13 N          62.3481   78.5473   12.2151 N.ar    1  UNL1       -0.2183
     14 C          62.7717   78.1170   10.8420 C.ar    1  UNL1        0.2145
     15 N          62.6408   76.6799   10.4327 N.pl3   1  UNL1       -0.3274
     16 N          63.3263   79.1238    9.8783 N.ar    1  UNL1       -0.1995
     17 C          63.4572   80.5609   10.2877 C.ar    1  UNL1        0.1293
     18 N          64.0118   81.5677    9.3240 N.pl3   1  UNL1       -0.3425
     19 C          63.0336   80.9912   11.6607 C.ar    1  UNL1        0.0449
     20 H          62.2768   76.0191   11.0652 H       1  UNL1        0.1452
     21 H          62.9189   76.3974    9.5315 H       1  UNL1        0.1452
     22 H          64.2899   81.2853    8.4228 H       1  UNL1        0.1437
     23 H          64.0977   82.5109    9.5926 H       1  UNL1        0.1437
     24 C          60.6366   80.8323   14.2483 C.3     1  UNL1        0.0067
     25 C          62.0553   80.4147   13.9976 C.3     1  UNL1        0.0460
     26 C          62.7350   89.1996   11.8836 C.ar    1  UNL1        0.0264
     27 C          63.8361   90.0958   11.3993 C.ar    1  UNL1        0.0293
     28 C          63.5155   91.4696   10.8894 C.ar    1  UNL1        0.1422
     29 F          64.6167   92.3657   10.4051 F       1  UNL1       -0.2041
     30 C          62.0939   91.9472   10.8638 C.ar    1  UNL1        0.0592
     31 C          60.9928   91.0511   11.3481 C.ar    1  UNL1        0.1422
     32 F          59.5711   91.5287   11.3224 F       1  UNL1       -0.2041
     33 C          61.3133   89.6773   11.8579 C.ar    1  UNL1        0.0293
     34 C          63.5767   88.6539   13.5305 C.3     1  UNL1        0.0535
     35 C          64.3698   88.0072   14.6273 C.3     1  UNL1        0.0046
     36 C          61.6598   85.6870    9.3559 C.3     1  UNL1        0.1010
     37 C          60.2750   86.1679    9.0378 C.3     1  UNL1        0.0539
     38 C          59.9946   86.8286    7.7206 C.3     1  UNL1        0.1440
     39 O          59.0277   87.9729    7.6463 O.3     1  UNL1       -0.3510
     40 C          59.4062   89.2286    6.9183 C.3     1  UNL1        0.1741
@<TRIPOS>BOND
     1    24    25    1
     2    25    12    1
     3    12    13   ar
     4    13    14   ar
     5    14    15    1
     6    14    16   ar
     7    16    17   ar
     8    17    18    1
     9    17    19   ar
    10    19     1    1
    11     1     2   ar
    12     2     3   ar
    13     3     4   ar
    14     4     5   ar
    15     5     6   ar
    16     5     7    1
    17     7    36    1
    18    36    37    1
    19    37    38    1
    20    38    39    1
    21    39    40    1
    22     7     8   am
    23     8     9    2
    24     8    10    1
    25    10    34    1
    26    34    35    1
    27    10    26    1
    28    26    27   ar
    29    27    28   ar
    30    28    29    1
    31    28    30   ar
    32    30    31   ar
    33    31    32    1
    34    31    33   ar
    35    10    11    1
    36    19    12   ar
    37     6     1   ar
    38    33    26   ar
    39    11     4    1
    40    15    20    1
    41    15    21    1
    42    18    22    1
    43    18    23    1
