@<TRIPOS>MOLECULE
*****
 35 39 0 0 0
SMALL
GASTEIGER

@<TRIPOS>ATOM
      1 C          64.2138   83.0584   14.5702 C.3     1  UNL1        0.2159
      2 N          63.7657   84.2710   13.8094 N.am    1  UNL1       -0.1449
      3 C          64.2168   85.6353   14.2394 C.2     1  UNL1        0.3728
      4 N          65.1160   85.7871   15.4305 N.2     1  UNL1       -0.1329
      5 N          63.7687   86.8479   13.4786 N.pl3   1  UNL1       -0.2247
      6 C          62.8696   86.6961   12.2876 C.3     1  UNL1        0.1559
      7 C          62.2692   87.7002   11.3488 C.3     1  UNL1        0.1327
      8 N          61.4471   86.9563   10.3384 N.pl3   1  UNL1       -0.2740
      9 C          61.5393   85.4925   10.6528 C.3     1  UNL1        0.1079
     10 C          62.4185   85.3317   11.8575 C.3     1  UNL1        0.1498
     11 C          62.8666   84.1192   12.6184 C.2     1  UNL1        0.2919
     12 O          62.4155   82.7548   12.1883 O.2     1  UNL1       -0.2563
     13 H          65.4101   84.9913   15.9299 H       1  UNL1        0.3058
     14 H          64.0648   87.7434   13.7609 H       1  UNL1        0.2454
     15 C          60.6693   87.5687    9.2115 C.ar    1  UNL1        0.2204
     16 N          59.8342   86.7005    8.3177 N.ar    1  UNL1       -0.2097
     17 C          59.0564   87.3129    7.1908 C.ar    1  UNL1        0.1330
     18 C          59.1136   88.7936    6.9577 C.ar    1  UNL1        0.1784
     19 F          58.3357   89.4060    5.8308 F       1  UNL1       -0.2009
     20 C          59.9486   89.6619    7.8515 C.ar    1  UNL1        0.1330
     21 N          60.7264   89.0494    8.9784 N.ar    1  UNL1       -0.2097
     22 C          63.2369   88.1170   12.5976 C.ar    1  UNL1        0.0397
     23 C          64.1598   88.5710   13.6894 C.ar    1  UNL1        0.0057
     24 C          64.2391   90.0680   13.6367 C.ar    1  UNL1        0.0068
     25 C          63.3652   90.5392   12.5124 C.ar    1  UNL1        0.0352
     26 S          62.7458   89.3334   11.8701 S.2     1  UNL1       -0.0878
     27 C          65.0499   90.9406   14.5484 C.ar    1  UNL1        0.0034
     28 C          64.4336   91.4980   15.7971 C.ar    1  UNL1        0.0297
     29 C          65.2444   92.3706   16.7088 C.ar    1  UNL1        0.1408
     30 F          64.6280   92.9280   17.9575 F       1  UNL1       -0.2042
     31 C          66.6717   92.6858   16.3717 C.ar    1  UNL1        0.0399
     32 C          67.2880   92.1283   15.1230 C.ar    1  UNL1        0.0707
     33 C          66.4772   91.2558   14.2113 C.ar    1  UNL1        0.0104
     34 C          68.7153   92.4435   14.7858 C.1     1  UNL1        0.1005
     35 N          70.1425   92.7587   14.4486 N.1     1  UNL1       -0.1908
@<TRIPOS>BOND
     1     1     2    1
     2     2     3    1
     3     3     4    2
     4     3     5    1
     5     5     6    1
     6     6    22    1
     7    22    23   ar
     8    23    24   ar
     9    24    27    1
    10    27    28   ar
    11    28    29   ar
    12    29    30    1
    13    29    31   ar
    14    31    32   ar
    15    32    34    1
    16    34    35    3
    17    32    33   ar
    18    24    25   ar
    19    25    26   ar
    20     6     7    1
    21     7     8    1
    22     8    15    1
    23    15    16   ar
    24    16    17   ar
    25    17    18   ar
    26    18    19    1
    27    18    20   ar
    28    20    21   ar
    29     8     9    1
    30    10     9    1
    31    10    11    1
    32    11    12    2
    33    11     2   am
    34    10     6    1
    35    26    22   ar
    36    21    15   ar
    37    33    27   ar
    38     4    13    1
    39     5    14    1
@<TRIPOS>MOLECULE
*****
 35 39 0 0 0
SMALL
GASTEIGER

@<TRIPOS>ATOM
      1 C          59.7414   89.4566    7.8838 C.3     1  UNL1        0.2159
      2 N          60.5370   88.7827    8.9622 N.am    1  UNL1       -0.1449
      3 C          61.3458   89.6039    9.9220 C.2     1  UNL1        0.3728
      4 N          61.3592   91.0992    9.8034 N.2     1  UNL1       -0.1329
      5 N          62.1414   88.9299   11.0004 N.pl3   1  UNL1       -0.2247
      6 C          62.1281   87.4347   11.1190 C.3     1  UNL1        0.1559
      7 C          62.8075   86.4974   12.0728 C.3     1  UNL1        0.1327
      8 N          62.4186   85.0969   11.7025 N.pl3   1  UNL1       -0.2740
      9 C          61.4987   85.1686   10.5198 C.3     1  UNL1        0.1079
     10 C          61.3192   86.6134   10.1591 C.3     1  UNL1        0.1498
     11 C          60.5237   87.2874    9.0808 C.2     1  UNL1        0.2919
     12 O          59.7148   86.4662    8.1209 O.2     1  UNL1       -0.2563
     13 H          60.8371   91.5416    9.0956 H       1  UNL1        0.3058
     14 H          62.6723   89.4690   11.6304 H       1  UNL1        0.2454
     15 C          62.8701   83.8445   12.3935 C.ar    1  UNL1        0.2204
     16 N          63.4445   83.9168   13.7773 N.ar    1  UNL1       -0.2097
     17 C          63.8960   82.6643   14.4683 C.ar    1  UNL1        0.1330
     18 C          63.7733   81.3395   13.7755 C.ar    1  UNL1        0.1784
     19 F          64.2249   80.0871   14.4666 F       1  UNL1       -0.2009
     20 C          63.1990   81.2672   12.3917 C.ar    1  UNL1        0.1330
     21 N          62.7474   82.5197   11.7008 N.ar    1  UNL1       -0.2097
     22 C          62.9797   88.1206   12.1457 C.ar    1  UNL1        0.0397
     23 C          63.5261   89.5142   12.0496 C.ar    1  UNL1        0.0057
     24 C          64.3185   89.7882   13.2934 C.ar    1  UNL1        0.0068
     25 C          64.2619   88.5639   14.1582 C.ar    1  UNL1        0.0352
     26 S          63.4344   87.5333   13.4489 S.2     1  UNL1       -0.0878
     27 C          65.0408   91.0627   13.6158 C.ar    1  UNL1        0.0034
     28 C          65.5224   91.3191   15.0130 C.ar    1  UNL1        0.0297
     29 C          66.2447   92.5936   15.3354 C.ar    1  UNL1        0.1408
     30 F          66.7263   92.8499   16.7327 F       1  UNL1       -0.2042
     31 C          66.4854   93.6118   14.2605 C.ar    1  UNL1        0.0399
     32 C          66.0038   93.3554   12.8633 C.ar    1  UNL1        0.0707
     33 C          65.2815   92.0809   12.5409 C.ar    1  UNL1        0.0104
     34 C          66.2445   94.3735   11.7883 C.1     1  UNL1        0.1005
     35 N          66.4853   95.3916   10.7134 N.1     1  UNL1       -0.1908
@<TRIPOS>BOND
     1     1     2    1
     2     2     3    1
     3     3     4    2
     4     3     5    1
     5     5     6    1
     6     6    22    1
     7    22    23   ar
     8    23    24   ar
     9    24    27    1
    10    27    28   ar
    11    28    29   ar
    12    29    30    1
    13    29    31   ar
    14    31    32   ar
    15    32    34    1
    16    34    35    3
    17    32    33   ar
    18    24    25   ar
    19    25    26   ar
    20     6     7    1
    21     7     8    1
    22     8    15    1
    23    15    16   ar
    24    16    17   ar
    25    17    18   ar
    26    18    19    1
    27    18    20   ar
    28    20    21   ar
    29     8     9    1
    30    10     9    1
    31    10    11    1
    32    11    12    2
    33    11     2   am
    34    10     6    1
    35    26    22   ar
    36    21    15   ar
    37    33    27   ar
    38     4    13    1
    39     5    14    1
@<TRIPOS>MOLECULE
*****
 35 39 0 0 0
SMALL
GASTEIGER

@<TRIPOS>ATOM
      1 C          62.7308   78.1496   11.8695 C.3     1  UNL1        0.2159
      2 N          62.7745   79.6378   12.0526 N.am    1  UNL1       -0.1449
      3 C          62.7557   80.5416   10.8557 C.2     1  UNL1        0.3728
      4 N          62.6933   79.9573    9.4755 N.2     1  UNL1       -0.1329
      5 N          62.7994   82.0298   11.0388 N.pl3   1  UNL1       -0.2247
      6 C          62.8619   82.6141   12.4189 C.3     1  UNL1        0.1559
      7 C          62.9144   84.0313   12.9074 C.3     1  UNL1        0.1327
      8 N          62.9656   84.0034   14.4062 N.pl3   1  UNL1       -0.2740
      9 C          62.9447   82.5689   14.8441 C.3     1  UNL1        0.1079
     10 C          62.8807   81.7102   13.6159 C.3     1  UNL1        0.1498
     11 C          62.8369   80.2221   13.4327 C.2     1  UNL1        0.2919
     12 O          62.8557   79.3182   14.6297 O.2     1  UNL1       -0.2563
     13 H          62.6646   78.9805    9.3553 H       1  UNL1        0.3058
     14 H          62.7871   82.6230   10.2532 H       1  UNL1        0.2454
     15 C          63.0269   85.1999   15.3088 C.ar    1  UNL1        0.2204
     16 N          62.3031   85.1862   16.6225 N.ar    1  UNL1       -0.2097
     17 C          62.3645   86.3828   17.5250 C.ar    1  UNL1        0.1330
     18 C          63.1496   87.5930   17.1139 C.ar    1  UNL1        0.1784
     19 F          63.2109   88.7895   18.0164 F       1  UNL1       -0.2009
     20 C          63.8734   87.6066   15.8001 C.ar    1  UNL1        0.1330
     21 N          63.8120   86.4101   14.8976 N.ar    1  UNL1       -0.2097
     22 C          62.8497   83.6380   11.3228 C.ar    1  UNL1        0.0397
     23 C          62.1080   84.9416   11.3423 C.ar    1  UNL1        0.0057
     24 C          62.3769   85.6473   10.0463 C.ar    1  UNL1        0.0068
     25 C          63.2848   84.7799    9.2258 C.ar    1  UNL1        0.0352
     26 S          63.5770   83.5380   10.0148 S.2     1  UNL1       -0.0878
     27 C          61.8334   86.9856    9.6417 C.ar    1  UNL1        0.0034
     28 C          60.5681   87.0702    8.8406 C.ar    1  UNL1        0.0297
     29 C          60.0246   88.4084    8.4360 C.ar    1  UNL1        0.1408
     30 F          58.7593   88.4929    7.6348 F       1  UNL1       -0.2042
     31 C          60.7463   89.6621    8.8327 C.ar    1  UNL1        0.0399
     32 C          62.0116   89.5775    9.6339 C.ar    1  UNL1        0.0707
     33 C          62.5551   88.2393   10.0384 C.ar    1  UNL1        0.0104
     34 C          62.7334   90.8312   10.0306 C.1     1  UNL1        0.1005
     35 N          63.4553   92.0848   10.4272 N.1     1  UNL1       -0.1908
@<TRIPOS>BOND
     1     1     2    1
     2     2     3    1
     3     3     4    2
     4     3     5    1
     5     5     6    1
     6     6    22    1
     7    22    23   ar
     8    23    24   ar
     9    24    27    1
    10    27    28   ar
    11    28    29   ar
    12    29    30    1
    13    29    31   ar
    14    31    32   ar
    15    32    34    1
    16    34    35    3
    17    32    33   ar
    18    24    25   ar
    19    25    26   ar
    20     6     7    1
    21     7     8    1
    22     8    15    1
    23    15    16   ar
    24    16    17   ar
    25    17    18   ar
    26    18    19    1
    27    18    20   ar
    28    20    21   ar
    29     8     9    1
    30    10     9    1
    31    10    11    1
    32    11    12    2
    33    11     2   am
    34    10     6    1
    35    26    22   ar
    36    21    15   ar
    37    33    27   ar
    38     4    13    1
    39     5    14    1
@<TRIPOS>MOLECULE
*****
 35 39 0 0 0
SMALL
GASTEIGER

@<TRIPOS>ATOM
      1 C          63.8937   94.0156   -6.7976 C.3     1  UNL1        0.2159
      2 N          62.8944   94.2038   -5.6947 N.am    1  UNL1       -0.1449
      3 C          63.3459   94.1974   -4.2644 C.2     1  UNL1        0.3728
      4 N          64.7967   94.0028   -3.9367 N.2     1  UNL1       -0.1329
      5 N          62.3466   94.3857   -3.1616 N.pl3   1  UNL1       -0.2247
      6 C          60.8959   94.5803   -3.4893 C.3     1  UNL1        0.1559
      7 C          59.6901   94.7885   -2.6216 C.3     1  UNL1        0.1327
      8 N          58.4934   94.9236   -3.5159 N.pl3   1  UNL1       -0.2740
      9 C          58.9596   94.7989   -4.9361 C.3     1  UNL1        0.1079
     10 C          60.4444   94.5867   -4.9197 C.3     1  UNL1        0.1498
     11 C          61.4436   94.3985   -6.0224 C.2     1  UNL1        0.2919
     12 O          60.9921   94.4049   -7.4529 O.2     1  UNL1       -0.2563
     13 H          65.4526   93.8793   -4.6605 H       1  UNL1        0.3058
     14 H          62.6430   94.3815   -2.2227 H       1  UNL1        0.2454
     15 C          57.0789   95.1447   -3.0684 C.ar    1  UNL1        0.2204
     16 N          56.3820   96.4326   -3.3935 N.ar    1  UNL1       -0.2097
     17 C          54.9674   96.6535   -2.9459 C.ar    1  UNL1        0.1330
     18 C          54.2498   95.5867   -2.1734 C.ar    1  UNL1        0.1784
     19 F          52.8352   95.8077   -1.7260 F       1  UNL1       -0.2009
     20 C          54.9467   94.2988   -1.8484 C.ar    1  UNL1        0.1330
     21 N          56.3612   94.0779   -2.2959 N.ar    1  UNL1       -0.2097
     22 C          61.1971   94.5970   -2.0199 C.ar    1  UNL1        0.0397
     23 C          61.0123   93.4519   -1.0689 C.ar    1  UNL1        0.0057
     24 C          61.4370   93.9090    0.2951 C.ar    1  UNL1        0.0068
     25 C          61.8843   95.3367    0.1872 C.ar    1  UNL1        0.0352
     26 S          61.7360   95.7619   -1.2437 S.2     1  UNL1       -0.0878
     27 C          61.4178   93.0834    1.5473 C.ar    1  UNL1        0.0034
     28 C          62.6586   92.3683    1.9934 C.ar    1  UNL1        0.0297
     29 C          62.6395   91.5427    3.2455 C.ar    1  UNL1        0.1408
     30 F          63.8803   90.8277    3.6915 F       1  UNL1       -0.2042
     31 C          61.3794   91.4322    4.0518 C.ar    1  UNL1        0.0399
     32 C          60.1386   92.1473    3.6058 C.ar    1  UNL1        0.0707
     33 C          60.1578   92.9729    2.3536 C.ar    1  UNL1        0.0104
     34 C          58.8785   92.0369    4.4120 C.1     1  UNL1        0.1005
     35 N          57.6184   91.9263    5.2183 N.1     1  UNL1       -0.1908
@<TRIPOS>BOND
     1     1     2    1
     2     2     3    1
     3     3     4    2
     4     3     5    1
     5     5     6    1
     6     6    22    1
     7    22    23   ar
     8    23    24   ar
     9    24    27    1
    10    27    28   ar
    11    28    29   ar
    12    29    30    1
    13    29    31   ar
    14    31    32   ar
    15    32    34    1
    16    34    35    3
    17    32    33   ar
    18    24    25   ar
    19    25    26   ar
    20     6     7    1
    21     7     8    1
    22     8    15    1
    23    15    16   ar
    24    16    17   ar
    25    17    18   ar
    26    18    19    1
    27    18    20   ar
    28    20    21   ar
    29     8     9    1
    30    10     9    1
    31    10    11    1
    32    11    12    2
    33    11     2   am
    34    10     6    1
    35    26    22   ar
    36    21    15   ar
    37    33    27   ar
    38     4    13    1
    39     5    14    1
@<TRIPOS>MOLECULE
*****
 35 39 0 0 0
SMALL
GASTEIGER

@<TRIPOS>ATOM
      1 C          63.9629   80.8380   14.0490 C.3     1  UNL1        0.2159
      2 N          63.6508   82.2360   13.6034 N.am    1  UNL1       -0.1449
      3 C          64.1524   83.4057   14.3971 C.2     1  UNL1        0.3728
      4 N          64.9662   83.1776   15.6365 N.2     1  UNL1       -0.1329
      5 N          63.8403   84.8037   13.9515 N.pl3   1  UNL1       -0.2247
      6 C          63.0266   85.0317   12.7123 C.3     1  UNL1        0.1559
      7 C          62.5635   86.2860   12.0324 C.3     1  UNL1        0.1327
      8 N          61.7756   85.8914   10.8185 N.pl3   1  UNL1       -0.2740
      9 C          61.7518   84.3933   10.7481 C.3     1  UNL1        0.1079
     10 C          62.5250   83.8619   11.9186 C.3     1  UNL1        0.1498
     11 C          62.8371   82.4641   12.3641 C.2     1  UNL1        0.2919
     12 O          62.3355   81.2943   11.5704 O.2     1  UNL1       -0.2563
     13 H          65.1710   82.2601   15.9289 H       1  UNL1        0.3058
     14 H          64.1696   85.5714   14.4725 H       1  UNL1        0.2454
     15 C          61.1256   86.8302    9.8458 C.ar    1  UNL1        0.2204
     16 N          60.3097   86.2870    8.7103 N.ar    1  UNL1       -0.2097
     17 C          59.6598   87.2259    7.7375 C.ar    1  UNL1        0.1330
     18 C          59.8257   88.7078    7.9002 C.ar    1  UNL1        0.1784
     19 F          59.1757   89.6465    6.9275 F       1  UNL1       -0.2009
     20 C          60.6416   89.2509    9.0357 C.ar    1  UNL1        0.1330
     21 N          61.2915   88.3121   10.0085 N.ar    1  UNL1       -0.2097
     22 C          63.4576   86.2932   13.4000 C.ar    1  UNL1        0.0397
     23 C          63.8125   87.5865   12.7282 C.ar    1  UNL1        0.0057
     24 C          64.1836   88.5755   13.7933 C.ar    1  UNL1        0.0068
     25 C          64.0580   87.8933   15.1233 C.ar    1  UNL1        0.0352
     26 S          63.6093   86.4827   14.8802 S.2     1  UNL1       -0.0878
     27 C          64.6061   89.9970   13.5680 C.ar    1  UNL1        0.0034
     28 C          64.1891   90.7143   12.3184 C.ar    1  UNL1        0.0297
     29 C          64.6116   92.1358   12.0931 C.ar    1  UNL1        0.1408
     30 F          64.1946   92.8530   10.8434 F       1  UNL1       -0.2042
     31 C          65.4511   92.8401   13.1174 C.ar    1  UNL1        0.0399
     32 C          65.8681   92.1228   14.3670 C.ar    1  UNL1        0.0707
     33 C          65.4456   90.7013   14.5923 C.ar    1  UNL1        0.0104
     34 C          66.7076   92.8270   15.3914 C.1     1  UNL1        0.1005
     35 N          67.5471   93.5311   16.4158 N.1     1  UNL1       -0.1908
@<TRIPOS>BOND
     1     1     2    1
     2     2     3    1
     3     3     4    2
     4     3     5    1
     5     5     6    1
     6     6    22    1
     7    22    23   ar
     8    23    24   ar
     9    24    27    1
    10    27    28   ar
    11    28    29   ar
    12    29    30    1
    13    29    31   ar
    14    31    32   ar
    15    32    34    1
    16    34    35    3
    17    32    33   ar
    18    24    25   ar
    19    25    26   ar
    20     6     7    1
    21     7     8    1
    22     8    15    1
    23    15    16   ar
    24    16    17   ar
    25    17    18   ar
    26    18    19    1
    27    18    20   ar
    28    20    21   ar
    29     8     9    1
    30    10     9    1
    31    10    11    1
    32    11    12    2
    33    11     2   am
    34    10     6    1
    35    26    22   ar
    36    21    15   ar
    37    33    27   ar
    38     4    13    1
    39     5    14    1
@<TRIPOS>MOLECULE
*****
 35 39 0 0 0
SMALL
GASTEIGER

@<TRIPOS>ATOM
      1 C          64.0602   80.7277   13.8237 C.3     1  UNL1        0.2159
      2 N          63.7367   82.1551   13.4946 N.am    1  UNL1       -0.1449
      3 C          64.1612   83.2537   14.4233 C.2     1  UNL1        0.3728
      4 N          64.9094   82.9251   15.6813 N.2     1  UNL1       -0.1329
      5 N          63.8377   84.6810   14.0942 N.pl3   1  UNL1       -0.2247
      6 C          63.0897   85.0095   12.8363 C.3     1  UNL1        0.1559
      7 C          62.6325   86.3131   12.2518 C.3     1  UNL1        0.1327
      8 N          61.9254   86.0201   10.9618 N.pl3   1  UNL1       -0.2740
      9 C          61.9455   84.5354   10.7490 C.3     1  UNL1        0.1079
     10 C          62.6651   83.9108   11.9075 C.3     1  UNL1        0.1498
     11 C          62.9886   82.4836   12.2367 C.2     1  UNL1        0.2919
     12 O          62.5640   81.3849   11.3079 O.2     1  UNL1       -0.2563
     13 H          65.1217   81.9884   15.8974 H       1  UNL1        0.3058
     14 H          64.1164   85.4021   14.7038 H       1  UNL1        0.2454
     15 C          61.3067   87.0338   10.0455 C.ar    1  UNL1        0.2204
     16 N          61.5519   88.4964   10.2702 N.ar    1  UNL1       -0.2097
     17 C          60.9332   89.5100    9.3538 C.ar    1  UNL1        0.1330
     18 C          60.0692   89.0611    8.2128 C.ar    1  UNL1        0.1784
     19 F          59.4505   90.0748    7.2964 F       1  UNL1       -0.2009
     20 C          59.8239   87.5984    7.9881 C.ar    1  UNL1        0.1330
     21 N          60.4427   86.5848    8.9045 N.ar    1  UNL1       -0.2097
     22 C          63.4473   86.2081   13.6642 C.ar    1  UNL1        0.0397
     23 C          63.9120   87.5346   13.1404 C.ar    1  UNL1        0.0057
     24 C          64.1548   88.4369   14.3138 C.ar    1  UNL1        0.0068
     25 C          63.8403   87.6681   15.5628 C.ar    1  UNL1        0.0352
     26 S          63.4030   86.2905   15.1612 S.2     1  UNL1       -0.0878
     27 C          64.6291   89.8586   14.2496 C.ar    1  UNL1        0.0034
     28 C          65.0021   90.5825   15.5092 C.ar    1  UNL1        0.0297
     29 C          65.4763   92.0041   15.4450 C.ar    1  UNL1        0.1408
     30 F          65.8494   92.7279   16.7047 F       1  UNL1       -0.2042
     31 C          65.5775   92.7018   14.1210 C.ar    1  UNL1        0.0399
     32 C          65.2044   91.9780   12.8614 C.ar    1  UNL1        0.0707
     33 C          64.7302   90.5563   12.9256 C.ar    1  UNL1        0.0104
     34 C          65.3055   92.6757   11.5373 C.1     1  UNL1        0.1005
     35 N          65.4065   93.3734   10.2133 N.1     1  UNL1       -0.1908
@<TRIPOS>BOND
     1     1     2    1
     2     2     3    1
     3     3     4    2
     4     3     5    1
     5     5     6    1
     6     6    22    1
     7    22    23   ar
     8    23    24   ar
     9    24    27    1
    10    27    28   ar
    11    28    29   ar
    12    29    30    1
    13    29    31   ar
    14    31    32   ar
    15    32    34    1
    16    34    35    3
    17    32    33   ar
    18    24    25   ar
    19    25    26   ar
    20     6     7    1
    21     7     8    1
    22     8    15    1
    23    15    16   ar
    24    16    17   ar
    25    17    18   ar
    26    18    19    1
    27    18    20   ar
    28    20    21   ar
    29     8     9    1
    30    10     9    1
    31    10    11    1
    32    11    12    2
    33    11     2   am
    34    10     6    1
    35    26    22   ar
    36    21    15   ar
    37    33    27   ar
    38     4    13    1
    39     5    14    1
@<TRIPOS>MOLECULE
*****
 35 39 0 0 0
SMALL
GASTEIGER

@<TRIPOS>ATOM
      1 C          59.4923   89.2586    7.6483 C.3     1  UNL1        0.2159
      2 N          60.3217   88.6387    8.7337 N.am    1  UNL1       -0.1449
      3 C          61.1268   89.5092    9.6522 C.2     1  UNL1        0.3728
      4 N          61.1026   90.9998    9.4855 N.2     1  UNL1       -0.1329
      5 N          61.9562   88.8893   10.7376 N.pl3   1  UNL1       -0.2247
      6 C          61.9803   87.3988   10.9043 C.3     1  UNL1        0.1559
      7 C          62.6977   86.5090   11.8757 C.3     1  UNL1        0.1327
      8 N          62.3360   85.0886   11.5574 N.pl3   1  UNL1       -0.2740
      9 C          61.3950   85.1004   10.3893 C.3     1  UNL1        0.1079
     10 C          61.1751   86.5283    9.9857 C.3     1  UNL1        0.1498
     11 C          60.3458   87.1482    8.9004 C.2     1  UNL1        0.2919
     12 O          59.5407   86.2776    7.9818 O.2     1  UNL1       -0.2563
     13 H          60.5583   91.4067    8.7732 H       1  UNL1        0.3058
     14 H          62.4846   89.4607   11.3405 H       1  UNL1        0.2454
     15 C          62.8287   83.8701   12.2802 C.ar    1  UNL1        0.2204
     16 N          63.3568   83.9902   13.6791 N.ar    1  UNL1       -0.2097
     17 C          63.8495   82.7716   14.4019 C.ar    1  UNL1        0.1330
     18 C          63.8142   81.4330   13.7259 C.ar    1  UNL1        0.1784
     19 F          64.3069   80.2145   14.4487 F       1  UNL1       -0.2009
     20 C          63.2861   81.3129   12.3271 C.ar    1  UNL1        0.1330
     21 N          62.7934   82.5315   11.6043 N.ar    1  UNL1       -0.2097
     22 C          62.8325   88.1373   11.8934 C.ar    1  UNL1        0.0397
     23 C          63.5106   89.4552   11.6624 C.ar    1  UNL1        0.0057
     24 C          64.2535   89.8199   12.9134 C.ar    1  UNL1        0.0068
     25 C          64.0345   88.7274   13.9177 C.ar    1  UNL1        0.0352
     26 S          63.1563   87.6875   13.2873 S.2     1  UNL1       -0.0878
     27 C          65.0716   91.0594   13.1234 C.ar    1  UNL1        0.0034
     28 C          64.8977   92.2365   12.2101 C.ar    1  UNL1        0.0297
     29 C          65.7159   93.4761   12.4201 C.ar    1  UNL1        0.1408
     30 F          65.5419   94.6532   11.5067 F       1  UNL1       -0.2042
     31 C          66.7080   93.5386   13.5433 C.ar    1  UNL1        0.0399
     32 C          66.8819   92.3614   14.4566 C.ar    1  UNL1        0.0707
     33 C          66.0638   91.1219   14.2467 C.ar    1  UNL1        0.0104
     34 C          67.8741   92.4238   15.5799 C.1     1  UNL1        0.1005
     35 N          68.8663   92.4862   16.7032 N.1     1  UNL1       -0.1908
@<TRIPOS>BOND
     1     1     2    1
     2     2     3    1
     3     3     4    2
     4     3     5    1
     5     5     6    1
     6     6    22    1
     7    22    23   ar
     8    23    24   ar
     9    24    27    1
    10    27    28   ar
    11    28    29   ar
    12    29    30    1
    13    29    31   ar
    14    31    32   ar
    15    32    34    1
    16    34    35    3
    17    32    33   ar
    18    24    25   ar
    19    25    26   ar
    20     6     7    1
    21     7     8    1
    22     8    15    1
    23    15    16   ar
    24    16    17   ar
    25    17    18   ar
    26    18    19    1
    27    18    20   ar
    28    20    21   ar
    29     8     9    1
    30    10     9    1
    31    10    11    1
    32    11    12    2
    33    11     2   am
    34    10     6    1
    35    26    22   ar
    36    21    15   ar
    37    33    27   ar
    38     4    13    1
    39     5    14    1
@<TRIPOS>MOLECULE
*****
 35 39 0 0 0
SMALL
GASTEIGER

@<TRIPOS>ATOM
      1 C          62.7555   78.4028   11.8045 C.3     1  UNL1        0.2159
      2 N          62.7797   79.8862   12.0260 N.am    1  UNL1       -0.1449
      3 C          62.7246   80.8206   10.8539 C.2     1  UNL1        0.3728
      4 N          62.6454   80.2716    9.4602 N.2     1  UNL1       -0.1329
      5 N          62.7488   82.3040   11.0755 N.pl3   1  UNL1       -0.2247
      6 C          62.8280   82.8529   12.4692 C.3     1  UNL1        0.1559
      7 C          62.8678   84.2576   12.9939 C.3     1  UNL1        0.1327
      8 N          62.9474   84.1913   14.4903 N.pl3   1  UNL1       -0.2740
      9 C          62.9568   82.7456   14.8904 C.3     1  UNL1        0.1079
     10 C          62.8831   81.9185   13.6413 C.3     1  UNL1        0.1498
     11 C          62.8589   80.4351   13.4197 C.2     1  UNL1        0.2919
     12 O          62.9139   79.5007   14.5918 O.2     1  UNL1       -0.2563
     13 H          62.6296   79.2981    9.3147 H       1  UNL1        0.3058
     14 H          62.7127   82.9173   10.3062 H       1  UNL1        0.2454
     15 C          63.0071   85.3646   15.4229 C.ar    1  UNL1        0.2204
     16 N          62.3300   85.2954   16.7596 N.ar    1  UNL1       -0.2097
     17 C          62.3897   86.4688   17.6922 C.ar    1  UNL1        0.1330
     18 C          63.1265   87.7113   17.2881 C.ar    1  UNL1        0.1784
     19 F          63.1862   88.8847   18.2207 F       1  UNL1       -0.2009
     20 C          63.8036   87.7805   15.9514 C.ar    1  UNL1        0.1330
     21 N          63.7438   86.6071   15.0188 N.ar    1  UNL1       -0.2097
     22 C          62.7795   83.9048   11.4009 C.ar    1  UNL1        0.0397
     23 C          62.1543   85.2623   11.5280 C.ar    1  UNL1        0.0057
     24 C          62.3361   85.9804   10.2237 C.ar    1  UNL1        0.0068
     25 C          63.0737   85.0666    9.2904 C.ar    1  UNL1        0.0352
     26 S          63.3478   83.7838   10.0180 S.2     1  UNL1       -0.0878
     27 C          61.8633   87.3684    9.9080 C.ar    1  UNL1        0.0034
     28 C          62.3474   88.5296   10.7248 C.ar    1  UNL1        0.0297
     29 C          61.8746   89.9177   10.4091 C.ar    1  UNL1        0.1408
     30 F          62.3587   91.0788   11.2261 F       1  UNL1       -0.2042
     31 C          60.9177   90.1447    9.2765 C.ar    1  UNL1        0.0399
     32 C          60.4337   88.9835    8.4596 C.ar    1  UNL1        0.0707
     33 C          60.9064   87.5954    8.7753 C.ar    1  UNL1        0.0104
     34 C          59.4768   89.2103    7.3269 C.1     1  UNL1        0.1005
     35 N          58.5199   89.4371    6.1942 N.1     1  UNL1       -0.1908
@<TRIPOS>BOND
     1     1     2    1
     2     2     3    1
     3     3     4    2
     4     3     5    1
     5     5     6    1
     6     6    22    1
     7    22    23   ar
     8    23    24   ar
     9    24    27    1
    10    27    28   ar
    11    28    29   ar
    12    29    30    1
    13    29    31   ar
    14    31    32   ar
    15    32    34    1
    16    34    35    3
    17    32    33   ar
    18    24    25   ar
    19    25    26   ar
    20     6     7    1
    21     7     8    1
    22     8    15    1
    23    15    16   ar
    24    16    17   ar
    25    17    18   ar
    26    18    19    1
    27    18    20   ar
    28    20    21   ar
    29     8     9    1
    30    10     9    1
    31    10    11    1
    32    11    12    2
    33    11     2   am
    34    10     6    1
    35    26    22   ar
    36    21    15   ar
    37    33    27   ar
    38     4    13    1
    39     5    14    1
@<TRIPOS>MOLECULE
*****
 35 39 0 0 0
SMALL
GASTEIGER

@<TRIPOS>ATOM
      1 C          64.5004   83.4900   14.7747 C.3     1  UNL1        0.2159
      2 N          63.9731   84.6657   14.0068 N.am    1  UNL1       -0.1449
      3 C          64.2657   86.0601   14.4757 C.2     1  UNL1        0.3728
      4 N          65.0858   86.2789   15.7126 N.2     1  UNL1       -0.1329
      5 N          63.7384   87.2358   13.7078 N.pl3   1  UNL1       -0.2247
      6 C          62.9184   87.0170   12.4710 C.3     1  UNL1        0.1559
      7 C          62.2690   87.9734   11.5151 C.3     1  UNL1        0.1327
      8 N          61.5750   87.1700   10.4555 N.pl3   1  UNL1       -0.2740
      9 C          61.7955   85.7171   10.7564 C.3     1  UNL1        0.1079
     10 C          62.6257   85.6226   12.0021 C.3     1  UNL1        0.1498
     11 C          63.1531   84.4469   12.7700 C.2     1  UNL1        0.2919
     12 O          62.8604   83.0525   12.3011 O.2     1  UNL1       -0.2563
     13 H          65.4319   85.5072   16.2166 H       1  UNL1        0.3058
     14 H          63.9305   88.1511   14.0156 H       1  UNL1        0.2454
     15 C          60.7971   87.7224    9.2980 C.ar    1  UNL1        0.2204
     16 N          60.0523   86.7952    8.3841 N.ar    1  UNL1       -0.2097
     17 C          59.2744   87.3477    7.2266 C.ar    1  UNL1        0.1330
     18 C          59.2413   88.8274    6.9831 C.ar    1  UNL1        0.1784
     19 F          58.4634   89.3799    5.8257 F       1  UNL1       -0.2009
     20 C          59.9862   89.7547    7.8971 C.ar    1  UNL1        0.1330
     21 N          60.7641   89.2022    9.0545 N.ar    1  UNL1       -0.2097
     22 C          63.1281   88.4616   12.8164 C.ar    1  UNL1        0.0397
     23 C          64.3502   89.2740   12.5056 C.ar    1  UNL1        0.0057
     24 C          64.1300   90.6618   13.0304 C.ar    1  UNL1        0.0068
     25 C          62.7718   90.7072   13.6654 C.ar    1  UNL1        0.0352
     26 S          62.1526   89.3473   13.5332 S.2     1  UNL1       -0.0878
     27 C          65.0979   91.8038   12.9366 C.ar    1  UNL1        0.0034
     28 C          65.7364   92.3500   14.1791 C.ar    1  UNL1        0.0297
     29 C          66.7043   93.4920   14.0853 C.ar    1  UNL1        0.1408
     30 F          67.3428   94.0380   15.3280 F       1  UNL1       -0.2042
     31 C          67.0339   94.0879   12.7488 C.ar    1  UNL1        0.0399
     32 C          66.3955   93.5418   11.5062 C.ar    1  UNL1        0.0707
     33 C          65.4275   92.3998   11.6000 C.ar    1  UNL1        0.0104
     34 C          66.7250   94.1377   10.1696 C.1     1  UNL1        0.1005
     35 N          67.0545   94.7335    8.8331 N.1     1  UNL1       -0.1908
@<TRIPOS>BOND
     1     1     2    1
     2     2     3    1
     3     3     4    2
     4     3     5    1
     5     5     6    1
     6     6    22    1
     7    22    23   ar
     8    23    24   ar
     9    24    27    1
    10    27    28   ar
    11    28    29   ar
    12    29    30    1
    13    29    31   ar
    14    31    32   ar
    15    32    34    1
    16    34    35    3
    17    32    33   ar
    18    24    25   ar
    19    25    26   ar
    20     6     7    1
    21     7     8    1
    22     8    15    1
    23    15    16   ar
    24    16    17   ar
    25    17    18   ar
    26    18    19    1
    27    18    20   ar
    28    20    21   ar
    29     8     9    1
    30    10     9    1
    31    10    11    1
    32    11    12    2
    33    11     2   am
    34    10     6    1
    35    26    22   ar
    36    21    15   ar
    37    33    27   ar
    38     4    13    1
    39     5    14    1
