@<TRIPOS>MOLECULE
*****
 36 38 0 0 0
SMALL
GASTEIGER

@<TRIPOS>ATOM
      1 C          63.2899   90.0676   15.6290 C.3     1  UNL1        0.1532
      2 C          62.9204   89.6544   13.0907 C.2     1  UNL1        0.2673
      3 O          64.4051   89.6245   12.8794 O.2     1  UNL1       -0.2684
      4 N          62.3628   89.8759   14.4655 N.am    1  UNL1       -0.2932
      5 H          61.3883   89.8955   14.6042 H       1  UNL1        0.1502
      6 N          60.8262   88.4701   10.0448 N.ar    1  UNL1       -0.1741
      7 N          60.3066   89.8651   10.2290 N.ar    1  UNL1       -0.1491
      8 C          61.0278   90.4785   11.3924 C.ar    1  UNL1        0.1472
      9 C          61.9932   89.4627   11.9273 C.ar    1  UNL1        0.1763
     10 N          61.8686   88.2213   11.0943 N.ar    1  UNL1       -0.1462
     11 C          59.7900   88.6209    8.1998 C.3     1  UNL1        0.0263
     12 C          60.3816   87.4951    8.9952 C.3     1  UNL1        0.1054
     13 C          60.9731   86.3692    9.7906 C.3     1  UNL1        0.0263
     14 C          59.9369   86.5200    7.9457 C.3     1  UNL1        0.0263
     15 C          64.2020   91.2577   15.6730 C.2     1  UNL1        0.2413
     16 O          63.8374   92.4517   16.5045 O.2     1  UNL1       -0.2733
     17 N          65.4786   91.2538   14.8855 N.am    1  UNL1       -0.2945
     18 H          65.7179   90.4701   14.3397 H       1  UNL1        0.1503
     19 C          66.3906   92.4438   14.9295 C.3     1  UNL1        0.1365
     20 C          67.3912   93.4345   15.4465 C.3     1  UNL1        0.0353
     21 C          66.9624   92.2830   16.3069 C.3     1  UNL1        0.0353
     22 C          66.1356   93.0180   13.5674 C.1     1  UNL1        0.0896
     23 N          65.8807   93.5922   12.2053 N.1     1  UNL1       -0.1943
     24 C          63.3050   89.0693   16.7484 C.3     1  UNL1        0.0553
     25 C          63.3170   87.6007   16.4435 C.ar    1  UNL1       -0.0190
     26 C          62.3984   86.6737   17.1829 C.ar    1  UNL1       -0.0010
     27 C          62.4103   85.2051   16.8780 C.ar    1  UNL1        0.0377
     28 C          63.3408   84.6635   15.8336 C.ar    1  UNL1        0.1572
     29 C          64.2594   85.5905   15.0941 C.ar    1  UNL1        0.0915
     30 CL         65.1899   85.0488   14.0497 Cl      1  UNL1       -0.0791
     31 C          64.2475   87.0590   15.3990 C.ar    1  UNL1        0.0103
     32 O          63.3527   83.1948   15.5286 O.3     1  UNL1       -0.4036
     33 C          62.7441   82.6883   14.2547 C.3     1  UNL1        0.5753
     34 F          62.1354   82.1819   12.9806 F       1  UNL1       -0.1328
     35 F          61.6410   83.6968   14.3808 F       1  UNL1       -0.1328
     36 F          63.8473   81.6798   14.1286 F       1  UNL1       -0.1328
@<TRIPOS>BOND
     1    11    12    1
     2    12    13    1
     3    12    14    1
     4    12     6    1
     5     6     7   ar
     6     7     8   ar
     7     8     9   ar
     8     9     2    1
     9     2     3    2
    10     2     4   am
    11     4     1    1
    12     1    24    1
    13    24    25    1
    14    25    26   ar
    15    26    27   ar
    16    27    28   ar
    17    28    32    1
    18    32    33    1
    19    33    34    1
    20    33    35    1
    21    33    36    1
    22    28    29   ar
    23    29    30    1
    24    29    31   ar
    25     1    15    1
    26    15    16    2
    27    15    17   am
    28    17    19    1
    29    19    22    1
    30    22    23    3
    31    19    20    1
    32    20    21    1
    33     9    10   ar
    34    10     6   ar
    35    31    25   ar
    36    21    19    1
    37     4     5    1
    38    17    18    1
@<TRIPOS>MOLECULE
*****
 36 38 0 0 0
SMALL
GASTEIGER

@<TRIPOS>ATOM
      1 C          64.0985   89.1446   13.9220 C.3     1  UNL1        0.1532
      2 C          62.1440   88.8759   12.2315 C.2     1  UNL1        0.2673
      3 O          61.2909   89.7765   13.0747 O.2     1  UNL1       -0.2684
      4 N          63.5479   88.5599   12.6551 N.am    1  UNL1       -0.2932
      5 H          64.1078   87.9688   12.1017 H       1  UNL1        0.1502
      6 N          61.3036   86.8902    9.0041 N.ar    1  UNL1       -0.1741
      7 N          60.1882   87.8929    9.0261 N.ar    1  UNL1       -0.1491
      8 C          60.3673   88.7588   10.2378 C.ar    1  UNL1        0.1472
      9 C          61.5933   88.2913   10.9646 C.ar    1  UNL1        0.1763
     10 N          62.1721   87.1364   10.2021 N.ar    1  UNL1       -0.1462
     11 C          62.9230   85.6392    8.4445 C.3     1  UNL1        0.0263
     12 C          61.5137   85.8278    7.9662 C.3     1  UNL1        0.1054
     13 C          60.1046   86.0164    7.4879 C.3     1  UNL1        0.0263
     14 C          61.7239   84.7655    6.9283 C.3     1  UNL1        0.0263
     15 C          64.7164   90.5115   13.9106 C.2     1  UNL1        0.2413
     16 O          63.9853   91.6597   13.2805 O.2     1  UNL1       -0.2733
     17 N          66.0652   90.7300   14.5294 N.am    1  UNL1       -0.2945
     18 H          66.5450   89.9763   14.9429 H       1  UNL1        0.1503
     19 C          66.6830   92.0968   14.5180 C.3     1  UNL1        0.1365
     20 C          67.0385   93.4866   14.9561 C.3     1  UNL1        0.0353
     21 C          66.1423   92.6377   15.8084 C.3     1  UNL1        0.0353
     22 C          67.4382   92.0305   13.2237 C.1     1  UNL1        0.0896
     23 N          68.1934   91.9643   11.9294 N.1     1  UNL1       -0.1943
     24 C          64.0314   88.3625   15.2001 C.3     1  UNL1        0.0553
     25 C          63.9132   86.8676   15.1594 C.ar    1  UNL1       -0.0190
     26 C          63.4409   86.1194   16.3706 C.ar    1  UNL1       -0.0010
     27 C          63.3227   84.6246   16.3298 C.ar    1  UNL1        0.0377
     28 C          63.6768   83.8781   15.0779 C.ar    1  UNL1        0.1572
     29 C          64.1491   84.6264   13.8667 C.ar    1  UNL1        0.0915
     30 CL         64.5032   83.8799   12.6148 Cl      1  UNL1       -0.0791
     31 C          64.2673   86.1212   13.9075 C.ar    1  UNL1        0.0103
     32 O          63.5586   82.3833   15.0372 O.3     1  UNL1       -0.4036
     33 C          62.5283   81.7361   14.1600 C.3     1  UNL1        0.5753
     34 F          61.4980   81.0888   13.2827 F       1  UNL1       -0.1328
     35 F          61.5037   82.7230   14.6352 F       1  UNL1       -0.1328
     36 F          63.5530   80.7491   13.6847 F       1  UNL1       -0.1328
@<TRIPOS>BOND
     1    11    12    1
     2    12    13    1
     3    12    14    1
     4    12     6    1
     5     6     7   ar
     6     7     8   ar
     7     8     9   ar
     8     9     2    1
     9     2     3    2
    10     2     4   am
    11     4     1    1
    12     1    24    1
    13    24    25    1
    14    25    26   ar
    15    26    27   ar
    16    27    28   ar
    17    28    32    1
    18    32    33    1
    19    33    34    1
    20    33    35    1
    21    33    36    1
    22    28    29   ar
    23    29    30    1
    24    29    31   ar
    25     1    15    1
    26    15    16    2
    27    15    17   am
    28    17    19    1
    29    19    22    1
    30    22    23    3
    31    19    20    1
    32    20    21    1
    33     9    10   ar
    34    10     6   ar
    35    31    25   ar
    36    21    19    1
    37     4     5    1
    38    17    18    1
@<TRIPOS>MOLECULE
*****
 36 38 0 0 0
SMALL
GASTEIGER

@<TRIPOS>ATOM
      1 C          64.2537   90.9261   12.9634 C.3     1  UNL1        0.1532
      2 C          63.7162   89.1990   14.8285 C.2     1  UNL1        0.2673
      3 O          63.3366   90.3167   15.7541 O.2     1  UNL1       -0.2684
      4 N          64.1747   89.5037   13.4332 N.am    1  UNL1       -0.2932
      5 H          64.4239   88.7702   12.8257 H       1  UNL1        0.1502
      6 N          63.6473   85.3497   15.3222 N.ar    1  UNL1       -0.1741
      7 N          63.3843   85.8260   16.7200 N.ar    1  UNL1       -0.1491
      8 C          63.3781   87.3259   16.7053 C.ar    1  UNL1        0.1472
      9 C          63.6373   87.7767   15.2983 C.ar    1  UNL1        0.1763
     10 N          63.8036   86.5553   14.4434 N.ar    1  UNL1       -0.1462
     11 C          65.0799   84.1930   14.2686 C.3     1  UNL1        0.0263
     12 C          63.7380   83.9191   14.8805 C.3     1  UNL1        0.1054
     13 C          62.3961   83.6451   15.4923 C.3     1  UNL1        0.0263
     14 C          63.8287   82.4885   14.4388 C.3     1  UNL1        0.0263
     15 C          65.3502   91.8205   13.4611 C.2     1  UNL1        0.2413
     16 O          65.5528   93.1729   12.8447 O.2     1  UNL1       -0.2733
     17 N          66.2442   91.3626   14.5752 N.am    1  UNL1       -0.2945
     18 H          66.1112   90.4749   14.9797 H       1  UNL1        0.1503
     19 C          67.3407   92.2570   15.0728 C.3     1  UNL1        0.1365
     20 C          68.0740   93.2436   15.9323 C.3     1  UNL1        0.0353
     21 C          66.6757   92.8330   16.2877 C.3     1  UNL1        0.0353
     22 C          68.3864   91.9916   14.0307 C.1     1  UNL1        0.0896
     23 N          69.4322   91.7262   12.9886 N.1     1  UNL1       -0.1943
     24 C          63.2361   91.4540   11.9961 C.3     1  UNL1        0.0553
     25 C          62.2477   90.5200   11.3631 C.ar    1  UNL1       -0.0190
     26 C          62.4891   89.9993    9.9773 C.ar    1  UNL1       -0.0010
     27 C          61.5007   89.0653    9.3443 C.ar    1  UNL1        0.0377
     28 C          60.2709   88.6521   10.0972 C.ar    1  UNL1        0.1572
     29 C          60.0295   89.1728   11.4830 C.ar    1  UNL1        0.0915
     30 CL         58.7997   88.7595   12.2358 Cl      1  UNL1       -0.0791
     31 C          61.0179   90.1067   12.1159 C.ar    1  UNL1        0.0103
     32 O          59.2824   87.7180    9.4641 O.3     1  UNL1       -0.4036
     33 C          59.7426   86.7155    8.4477 C.3     1  UNL1        0.5753
     34 F          60.2027   85.7129    7.4312 F       1  UNL1       -0.1328
     35 F          58.9557   87.4284    7.3883 F       1  UNL1       -0.1328
     36 F          60.5294   86.0025    9.5072 F       1  UNL1       -0.1328
@<TRIPOS>BOND
     1    11    12    1
     2    12    13    1
     3    12    14    1
     4    12     6    1
     5     6     7   ar
     6     7     8   ar
     7     8     9   ar
     8     9     2    1
     9     2     3    2
    10     2     4   am
    11     4     1    1
    12     1    24    1
    13    24    25    1
    14    25    26   ar
    15    26    27   ar
    16    27    28   ar
    17    28    32    1
    18    32    33    1
    19    33    34    1
    20    33    35    1
    21    33    36    1
    22    28    29   ar
    23    29    30    1
    24    29    31   ar
    25     1    15    1
    26    15    16    2
    27    15    17   am
    28    17    19    1
    29    19    22    1
    30    22    23    3
    31    19    20    1
    32    20    21    1
    33     9    10   ar
    34    10     6   ar
    35    31    25   ar
    36    21    19    1
    37     4     5    1
    38    17    18    1
@<TRIPOS>MOLECULE
*****
 36 38 0 0 0
SMALL
GASTEIGER

@<TRIPOS>ATOM
      1 C          63.2923   90.6763   13.1334 C.3     1  UNL1        0.1532
      2 C          65.2380   92.3120   12.5961 C.2     1  UNL1        0.2673
      3 O          66.1658   91.4838   13.4346 O.2     1  UNL1       -0.2684
      4 N          63.8012   91.9083   12.4455 N.am    1  UNL1       -0.2932
      5 H          63.1922   92.4519   11.8951 H       1  UNL1        0.1502
      6 N          66.2823   95.1755   10.1928 N.ar    1  UNL1       -0.1741
      7 N          66.7777   95.7042   11.5061 N.ar    1  UNL1       -0.1491
      8 C          66.4468   94.6959   12.5663 C.ar    1  UNL1        0.1472
      9 C          65.7469   93.5440   11.9081 C.ar    1  UNL1        0.1763
     10 N          65.6452   93.8404   10.4411 N.ar    1  UNL1       -0.1462
     11 C          65.3608   96.8558    9.2830 C.3     1  UNL1        0.0263
     12 C          66.4028   95.8613    8.8642 C.3     1  UNL1        0.1054
     13 C          67.4447   94.8669    8.4453 C.3     1  UNL1        0.0263
     14 C          66.5232   96.5472    7.5356 C.3     1  UNL1        0.0263
     15 C          62.2957   89.7908   12.4458 C.2     1  UNL1        0.2413
     16 O          60.9057   89.6590   12.9941 O.2     1  UNL1       -0.2733
     17 N          62.6890   89.0373   11.2099 N.am    1  UNL1       -0.2945
     18 H          63.6013   89.1238   10.8501 H       1  UNL1        0.1503
     19 C          61.6924   88.1519   10.5224 C.3     1  UNL1        0.1365
     20 C          60.6118   87.7126    9.5793 C.3     1  UNL1        0.0353
     21 C          61.1045   89.1291    9.5479 C.3     1  UNL1        0.0353
     22 C          61.9342   86.8672   11.2580 C.1     1  UNL1        0.0896
     23 N          62.1760   85.5825   11.9936 N.1     1  UNL1       -0.1943
     24 C          63.7799   90.3298   14.5089 C.3     1  UNL1        0.0553
     25 C          63.7617   88.9038   14.9741 C.ar    1  UNL1       -0.0190
     26 C          64.3233   87.8224   14.0994 C.ar    1  UNL1       -0.0010
     27 C          64.3050   86.3965   14.5646 C.ar    1  UNL1        0.0377
     28 C          63.7251   86.0520   15.9044 C.ar    1  UNL1        0.1572
     29 C          63.1635   87.1334   16.7790 C.ar    1  UNL1        0.0915
     30 CL         62.5835   86.7890   18.1188 Cl      1  UNL1       -0.0791
     31 C          63.1818   88.5593   16.3139 C.ar    1  UNL1        0.0103
     32 O          63.7068   84.6260   16.3696 O.3     1  UNL1       -0.4036
     33 C          63.1627   83.5521   15.4747 C.3     1  UNL1        0.5753
     34 F          62.6187   82.4782   14.5799 F       1  UNL1       -0.1328
     35 F          64.5343   82.9570   15.3550 F       1  UNL1       -0.1328
     36 F          61.7911   84.1473   15.5944 F       1  UNL1       -0.1328
@<TRIPOS>BOND
     1    11    12    1
     2    12    13    1
     3    12    14    1
     4    12     6    1
     5     6     7   ar
     6     7     8   ar
     7     8     9   ar
     8     9     2    1
     9     2     3    2
    10     2     4   am
    11     4     1    1
    12     1    24    1
    13    24    25    1
    14    25    26   ar
    15    26    27   ar
    16    27    28   ar
    17    28    32    1
    18    32    33    1
    19    33    34    1
    20    33    35    1
    21    33    36    1
    22    28    29   ar
    23    29    30    1
    24    29    31   ar
    25     1    15    1
    26    15    16    2
    27    15    17   am
    28    17    19    1
    29    19    22    1
    30    22    23    3
    31    19    20    1
    32    20    21    1
    33     9    10   ar
    34    10     6   ar
    35    31    25   ar
    36    21    19    1
    37     4     5    1
    38    17    18    1
@<TRIPOS>MOLECULE
*****
 36 38 0 0 0
SMALL
GASTEIGER

@<TRIPOS>ATOM
      1 C          64.0777   89.3027   14.1325 C.3     1  UNL1        0.1532
      2 C          62.9384   89.7880   11.8485 C.2     1  UNL1        0.2673
      3 O          64.0322   90.7567   11.5087 O.2     1  UNL1       -0.2684
      4 N          62.9612   89.0610   13.1604 N.am    1  UNL1       -0.2932
      5 H          62.2433   88.4253   13.3833 H       1  UNL1        0.1502
      6 N          60.3956   88.5045    9.2118 N.ar    1  UNL1       -0.1741
      7 N          59.8120   89.8445    9.5490 N.ar    1  UNL1       -0.1491
      8 C          60.6935   90.4884   10.5777 C.ar    1  UNL1        0.1472
      9 C          61.8219   89.5464   10.8763 C.ar    1  UNL1        0.1763
     10 N          61.6378   88.3201   10.0321 N.ar    1  UNL1       -0.1462
     11 C          60.4096   86.3910    9.0290 C.3     1  UNL1        0.0263
     12 C          59.8354   87.5213    8.2272 C.3     1  UNL1        0.1054
     13 C          59.2612   88.6515    7.4253 C.3     1  UNL1        0.0263
     14 C          59.2752   86.5381    7.2425 C.3     1  UNL1        0.0263
     15 C          64.5813   90.6964   14.3649 C.2     1  UNL1        0.2413
     16 O          63.8069   91.6376   15.2393 O.2     1  UNL1       -0.2733
     17 N          65.8591   91.1490   13.7229 N.am    1  UNL1       -0.2945
     18 H          66.3673   90.5313   13.1489 H       1  UNL1        0.1503
     19 C          66.3626   92.5427   13.9553 C.3     1  UNL1        0.1365
     20 C          66.5888   94.0117   13.7532 C.3     1  UNL1        0.0353
     21 C          65.7388   93.2435   12.7849 C.3     1  UNL1        0.0353
     22 C          67.1612   92.3259   15.2063 C.1     1  UNL1        0.0896
     23 N          67.9599   92.1091   16.4574 N.1     1  UNL1       -0.1943
     24 C          64.6906   88.1507   14.8722 C.3     1  UNL1        0.0553
     25 C          64.2983   86.7443   14.5280 C.ar    1  UNL1       -0.0190
     26 C          64.6128   85.6248   15.4753 C.ar    1  UNL1       -0.0010
     27 C          64.2205   84.2185   15.1311 C.ar    1  UNL1        0.0377
     28 C          63.5136   83.9319   13.8395 C.ar    1  UNL1        0.1572
     29 C          63.1991   85.0515   12.8922 C.ar    1  UNL1        0.0915
     30 CL         62.4922   84.7648   11.6006 Cl      1  UNL1       -0.0791
     31 C          63.5914   86.4577   13.2364 C.ar    1  UNL1        0.0103
     32 O          63.1213   82.5255   13.4953 O.3     1  UNL1       -0.4036
     33 C          63.3956   81.9848   12.1234 C.3     1  UNL1        0.5753
     34 F          63.6700   81.4441   10.7513 F       1  UNL1       -0.1328
     35 F          64.8500   82.3146   12.2842 F       1  UNL1       -0.1328
     36 F          61.9412   81.6551   11.9625 F       1  UNL1       -0.1328
@<TRIPOS>BOND
     1    11    12    1
     2    12    13    1
     3    12    14    1
     4    12     6    1
     5     6     7   ar
     6     7     8   ar
     7     8     9   ar
     8     9     2    1
     9     2     3    2
    10     2     4   am
    11     4     1    1
    12     1    24    1
    13    24    25    1
    14    25    26   ar
    15    26    27   ar
    16    27    28   ar
    17    28    32    1
    18    32    33    1
    19    33    34    1
    20    33    35    1
    21    33    36    1
    22    28    29   ar
    23    29    30    1
    24    29    31   ar
    25     1    15    1
    26    15    16    2
    27    15    17   am
    28    17    19    1
    29    19    22    1
    30    22    23    3
    31    19    20    1
    32    20    21    1
    33     9    10   ar
    34    10     6   ar
    35    31    25   ar
    36    21    19    1
    37     4     5    1
    38    17    18    1
@<TRIPOS>MOLECULE
*****
 36 38 0 0 0
SMALL
GASTEIGER

@<TRIPOS>ATOM
      1 C          63.2226   89.8525   13.9561 C.3     1  UNL1        0.1532
      2 C          61.4554   89.2512   12.1490 C.2     1  UNL1        0.2673
      3 O          60.3576   89.6538   13.0885 O.2     1  UNL1       -0.2684
      4 N          62.8879   89.3505   12.5828 N.am    1  UNL1       -0.2932
      5 H          63.6084   89.0862   11.9661 H       1  UNL1        0.1502
      6 N          60.9061   87.3110    8.8324 N.ar    1  UNL1       -0.1741
      7 N          60.3053   88.6426    8.4921 N.ar    1  UNL1       -0.1491
      8 C          60.4380   89.5315    9.6931 C.ar    1  UNL1        0.1472
      9 C          61.1207   88.7492   10.7757 C.ar    1  UNL1        0.1763
     10 N          61.4101   87.3768   10.2438 N.ar    1  UNL1       -0.1462
     11 C          62.3946   85.8691    8.3788 C.3     1  UNL1        0.0263
     12 C          60.9885   86.1222    7.9215 C.3     1  UNL1        0.1054
     13 C          59.5825   86.3752    7.4641 C.3     1  UNL1        0.0263
     14 C          61.0709   84.9334    7.0105 C.3     1  UNL1        0.0263
     15 C          62.8956   89.0189   15.1596 C.2     1  UNL1        0.2413
     16 O          61.8319   89.4686   16.1169 O.2     1  UNL1       -0.2733
     17 N          63.6323   87.7358   15.4059 N.am    1  UNL1       -0.2945
     18 H          64.3305   87.4406   14.7776 H       1  UNL1        0.1503
     19 C          63.3053   86.9023   16.6093 C.3     1  UNL1        0.1365
     20 C          62.9148   86.5456   18.0130 C.3     1  UNL1        0.0353
     21 C          63.0089   87.9856   17.6037 C.3     1  UNL1        0.0353
     22 C          63.4882   85.5296   16.0330 C.1     1  UNL1        0.0896
     23 N          63.6711   84.1568   15.4567 N.1     1  UNL1       -0.1943
     24 C          63.8842   91.1879   14.1260 C.3     1  UNL1        0.0553
     25 C          65.0070   91.5898   13.2161 C.ar    1  UNL1       -0.0190
     26 C          64.7146   92.0239   11.8104 C.ar    1  UNL1       -0.0010
     27 C          65.8374   92.4257   10.9007 C.ar    1  UNL1        0.0377
     28 C          67.2527   92.3935   11.3966 C.ar    1  UNL1        0.1572
     29 C          67.5451   91.9594   12.8023 C.ar    1  UNL1        0.0915
     30 CL         68.9604   91.9271   13.2982 Cl      1  UNL1       -0.0791
     31 C          66.4223   91.5575   13.7120 C.ar    1  UNL1        0.0103
     32 O          68.3756   92.7954   10.4867 O.3     1  UNL1       -0.4036
     33 C          68.0793   93.4968    9.1944 C.3     1  UNL1        0.5753
     34 F          67.7830   94.1984    7.9021 F       1  UNL1       -0.1328
     35 F          67.7536   94.7511    9.9499 F       1  UNL1       -0.1328
     36 F          68.4049   92.2426    8.4390 F       1  UNL1       -0.1328
@<TRIPOS>BOND
     1    11    12    1
     2    12    13    1
     3    12    14    1
     4    12     6    1
     5     6     7   ar
     6     7     8   ar
     7     8     9   ar
     8     9     2    1
     9     2     3    2
    10     2     4   am
    11     4     1    1
    12     1    24    1
    13    24    25    1
    14    25    26   ar
    15    26    27   ar
    16    27    28   ar
    17    28    32    1
    18    32    33    1
    19    33    34    1
    20    33    35    1
    21    33    36    1
    22    28    29   ar
    23    29    30    1
    24    29    31   ar
    25     1    15    1
    26    15    16    2
    27    15    17   am
    28    17    19    1
    29    19    22    1
    30    22    23    3
    31    19    20    1
    32    20    21    1
    33     9    10   ar
    34    10     6   ar
    35    31    25   ar
    36    21    19    1
    37     4     5    1
    38    17    18    1
@<TRIPOS>MOLECULE
*****
 36 38 0 0 0
SMALL
GASTEIGER

@<TRIPOS>ATOM
      1 C          63.2469   89.5063   12.2263 C.3     1  UNL1        0.1532
      2 C          64.5385   91.7209   12.6479 C.2     1  UNL1        0.2673
      3 O          64.1902   91.6466   14.1050 O.2     1  UNL1       -0.2684
      4 N          64.0668   90.6507   11.7085 N.am    1  UNL1       -0.2932
      5 H          64.2955   90.6994   10.7522 H       1  UNL1        0.1502
      6 N          66.4050   94.4638   10.6335 N.ar    1  UNL1       -0.1741
      7 N          66.8355   94.7887   12.0332 N.ar    1  UNL1       -0.1491
      8 C          66.1886   93.8007   12.9581 C.ar    1  UNL1        0.1472
      9 C          65.3584   92.8652   12.1301 C.ar    1  UNL1        0.1763
     10 N          65.4921   93.2750   10.6933 N.ar    1  UNL1       -0.1462
     11 C          65.8639   96.3070    9.7333 C.3     1  UNL1        0.0263
     12 C          66.8153   95.1986    9.3918 C.3     1  UNL1        0.1054
     13 C          67.7667   94.0903    9.0503 C.3     1  UNL1        0.0263
     14 C          67.2257   95.9334    8.1502 C.3     1  UNL1        0.0263
     15 C          62.0678   89.0128   11.4412 C.2     1  UNL1        0.2413
     16 O          60.7513   88.7907   12.1250 O.2     1  UNL1       -0.2733
     17 N          62.2052   88.7415    9.9724 N.am    1  UNL1       -0.2945
     18 H          63.0692   88.8873    9.5236 H       1  UNL1        0.1503
     19 C          61.0262   88.2481    9.1874 C.3     1  UNL1        0.1365
     20 C          59.6860   88.2373    8.5138 C.3     1  UNL1        0.0353
     21 C          60.1527   89.4666    9.2357 C.3     1  UNL1        0.0353
     22 C          61.4901   86.8583    8.8665 C.1     1  UNL1        0.0896
     23 N          61.9541   85.4684    8.5455 N.1     1  UNL1       -0.1943
     24 C          63.6060   88.8554   13.5292 C.3     1  UNL1        0.0553
     25 C          63.7417   87.3637   13.6101 C.ar    1  UNL1       -0.0190
     26 C          64.5160   86.7409   14.7336 C.ar    1  UNL1       -0.0010
     27 C          64.6517   85.2493   14.8145 C.ar    1  UNL1        0.0377
     28 C          64.0131   84.3805   13.7717 C.ar    1  UNL1        0.1572
     29 C          63.2388   85.0033   12.6481 C.ar    1  UNL1        0.0915
     30 CL         62.6001   84.1345   11.6054 Cl      1  UNL1       -0.0791
     31 C          63.1031   86.4949   12.5673 C.ar    1  UNL1        0.0103
     32 O          64.1488   82.8888   13.8526 O.3     1  UNL1       -0.4036
     33 C          62.9457   82.0408   14.1413 C.3     1  UNL1        0.5753
     34 F          61.7425   81.1927   14.4299 F       1  UNL1       -0.1328
     35 F          63.3535   81.0919   13.0535 F       1  UNL1       -0.1328
     36 F          62.5379   82.9896   15.2291 F       1  UNL1       -0.1328
@<TRIPOS>BOND
     1    11    12    1
     2    12    13    1
     3    12    14    1
     4    12     6    1
     5     6     7   ar
     6     7     8   ar
     7     8     9   ar
     8     9     2    1
     9     2     3    2
    10     2     4   am
    11     4     1    1
    12     1    24    1
    13    24    25    1
    14    25    26   ar
    15    26    27   ar
    16    27    28   ar
    17    28    32    1
    18    32    33    1
    19    33    34    1
    20    33    35    1
    21    33    36    1
    22    28    29   ar
    23    29    30    1
    24    29    31   ar
    25     1    15    1
    26    15    16    2
    27    15    17   am
    28    17    19    1
    29    19    22    1
    30    22    23    3
    31    19    20    1
    32    20    21    1
    33     9    10   ar
    34    10     6   ar
    35    31    25   ar
    36    21    19    1
    37     4     5    1
    38    17    18    1
@<TRIPOS>MOLECULE
*****
 36 38 0 0 0
SMALL
GASTEIGER

@<TRIPOS>ATOM
      1 C          62.0380   89.4681   10.5666 C.3     1  UNL1        0.1532
      2 C          62.4260   86.9205   10.8968 C.2     1  UNL1        0.2673
      3 O          62.3540   86.7171    9.4124 O.2     1  UNL1       -0.2684
      4 N          62.2680   88.2960   11.4740 N.am    1  UNL1       -0.2932
      5 H          62.3152   88.4295   12.4482 H       1  UNL1        0.1502
      6 N          62.7322   83.4849   12.6768 N.ar    1  UNL1       -0.1741
      7 N          63.2873   84.4043   13.7240 N.ar    1  UNL1       -0.1491
      8 C          63.2401   85.8032   13.1846 C.ar    1  UNL1        0.1472
      9 C          62.6559   85.7483   11.8041 C.ar    1  UNL1        0.1763
     10 N          62.3420   84.3155   11.4903 N.ar    1  UNL1       -0.1462
     11 C          62.1446   82.1515   14.2187 C.3     1  UNL1        0.0263
     12 C          62.5920   81.9961   12.7953 C.3     1  UNL1        0.1054
     13 C          63.0393   81.8407   11.3721 C.3     1  UNL1        0.0263
     14 C          62.4517   80.5074   12.9139 C.3     1  UNL1        0.0263
     15 C          60.8235   89.5090    9.6873 C.2     1  UNL1        0.2413
     16 O          59.5275   90.0416   10.2227 O.2     1  UNL1       -0.2733
     17 N          60.9049   89.0172    8.2725 N.am    1  UNL1       -0.2945
     18 H          61.7555   88.6677    7.9211 H       1  UNL1        0.1503
     19 C          59.6904   89.0581    7.3933 C.3     1  UNL1        0.1365
     20 C          58.6926   89.5561    6.3901 C.3     1  UNL1        0.0353
     21 C          59.8928   90.3887    6.7312 C.3     1  UNL1        0.0353
     22 C          59.0662   87.7416    7.7500 C.1     1  UNL1        0.0896
     23 N          58.4419   86.4251    8.1067 N.1     1  UNL1       -0.1943
     24 C          63.0226   90.5994   10.5386 C.3     1  UNL1        0.0553
     25 C          63.7499   90.9919   11.7905 C.ar    1  UNL1       -0.0190
     26 C          64.8347   92.0263   11.7346 C.ar    1  UNL1       -0.0010
     27 C          65.5620   92.4187   12.9864 C.ar    1  UNL1        0.0377
     28 C          65.2045   91.7766   14.2941 C.ar    1  UNL1        0.1572
     29 C          64.1197   90.7422   14.3499 C.ar    1  UNL1        0.0915
     30 CL         63.7623   90.1001   15.6576 Cl      1  UNL1       -0.0791
     31 C          63.3925   90.3498   13.0981 C.ar    1  UNL1        0.0103
     32 O          65.9318   92.1691   15.5459 O.3     1  UNL1       -0.4036
     33 C          67.4315   92.1663   15.5742 C.3     1  UNL1        0.5753
     34 F          68.9313   92.1634   15.6024 F       1  UNL1       -0.1328
     35 F          67.4410   90.8081   14.9375 F       1  UNL1       -0.1328
     36 F          67.4221   93.5244   16.2108 F       1  UNL1       -0.1328
@<TRIPOS>BOND
     1    11    12    1
     2    12    13    1
     3    12    14    1
     4    12     6    1
     5     6     7   ar
     6     7     8   ar
     7     8     9   ar
     8     9     2    1
     9     2     3    2
    10     2     4   am
    11     4     1    1
    12     1    24    1
    13    24    25    1
    14    25    26   ar
    15    26    27   ar
    16    27    28   ar
    17    28    32    1
    18    32    33    1
    19    33    34    1
    20    33    35    1
    21    33    36    1
    22    28    29   ar
    23    29    30    1
    24    29    31   ar
    25     1    15    1
    26    15    16    2
    27    15    17   am
    28    17    19    1
    29    19    22    1
    30    22    23    3
    31    19    20    1
    32    20    21    1
    33     9    10   ar
    34    10     6   ar
    35    31    25   ar
    36    21    19    1
    37     4     5    1
    38    17    18    1
@<TRIPOS>MOLECULE
*****
 36 38 0 0 0
SMALL
GASTEIGER

@<TRIPOS>ATOM
      1 C          62.6877   88.7953   11.9436 C.3     1  UNL1        0.1532
      2 C          62.3565   86.2295   12.1823 C.2     1  UNL1        0.2673
      3 O          60.9534   86.3628   11.6690 O.2     1  UNL1       -0.2684
      4 N          63.2237   87.4457   12.3197 N.am    1  UNL1       -0.2932
      5 H          64.1446   87.3582   12.6566 H       1  UNL1        0.1502
      6 N          63.1703   82.4758   12.7419 N.ar    1  UNL1       -0.1741
      7 N          64.2643   83.1304   13.5321 N.ar    1  UNL1       -0.1491
      8 C          64.0927   84.6163   13.4186 C.ar    1  UNL1        0.1472
      9 C          62.8925   84.8799   12.5584 C.ar    1  UNL1        0.1763
     10 N          62.3224   83.5570   12.1401 N.ar    1  UNL1       -0.1462
     11 C          63.1000   81.1407   11.0948 C.3     1  UNL1        0.0263
     12 C          62.9608   80.9992   12.5816 C.3     1  UNL1        0.1054
     13 C          62.8215   80.8575   14.0684 C.3     1  UNL1        0.0263
     14 C          62.7513   79.5225   12.4214 C.3     1  UNL1        0.0263
     15 C          62.1384   89.0272   10.5672 C.2     1  UNL1        0.2413
     16 O          62.8359   89.9681    9.6301 O.2     1  UNL1       -0.2733
     17 N          60.8916   88.3183   10.1280 N.am    1  UNL1       -0.2945
     18 H          60.4338   87.7008   10.7431 H       1  UNL1        0.1503
     19 C          60.3424   88.5503    8.7516 C.3     1  UNL1        0.1365
     20 C          59.7285   89.2570    7.5796 C.3     1  UNL1        0.0353
     21 C          59.9657   89.9980    8.8620 C.3     1  UNL1        0.0353
     22 C          60.5282   87.1831    8.1631 C.1     1  UNL1        0.0896
     23 N          60.7141   85.8159    7.5747 N.1     1  UNL1       -0.1943
     24 C          62.7010   89.9129   12.9440 C.3     1  UNL1        0.0553
     25 C          63.9529   90.7102   13.1612 C.ar    1  UNL1       -0.0190
     26 C          64.7938   90.4691   14.3797 C.ar    1  UNL1       -0.0010
     27 C          66.0456   91.2664   14.5968 C.ar    1  UNL1        0.0377
     28 C          66.4566   92.3048   13.5955 C.ar    1  UNL1        0.1572
     29 C          65.6157   92.5460   12.3770 C.ar    1  UNL1        0.0915
     30 CL         66.0267   93.5845   11.3756 Cl      1  UNL1       -0.0791
     31 C          64.3639   91.7487   12.1598 C.ar    1  UNL1        0.0103
     32 O          67.7085   93.1022   13.8126 O.3     1  UNL1       -0.4036
     33 C          68.5254   92.8926   15.0531 C.3     1  UNL1        0.5753
     34 F          69.3424   92.6830   16.2936 F       1  UNL1       -0.1328
     35 F          67.5477   93.7175   15.8363 F       1  UNL1       -0.1328
     36 F          69.5031   92.0677   14.2698 F       1  UNL1       -0.1328
@<TRIPOS>BOND
     1    11    12    1
     2    12    13    1
     3    12    14    1
     4    12     6    1
     5     6     7   ar
     6     7     8   ar
     7     8     9   ar
     8     9     2    1
     9     2     3    2
    10     2     4   am
    11     4     1    1
    12     1    24    1
    13    24    25    1
    14    25    26   ar
    15    26    27   ar
    16    27    28   ar
    17    28    32    1
    18    32    33    1
    19    33    34    1
    20    33    35    1
    21    33    36    1
    22    28    29   ar
    23    29    30    1
    24    29    31   ar
    25     1    15    1
    26    15    16    2
    27    15    17   am
    28    17    19    1
    29    19    22    1
    30    22    23    3
    31    19    20    1
    32    20    21    1
    33     9    10   ar
    34    10     6   ar
    35    31    25   ar
    36    21    19    1
    37     4     5    1
    38    17    18    1
