@<TRIPOS>MOLECULE
*****
 23 26 0 0 0
SMALL
GASTEIGER

@<TRIPOS>ATOM
      1 C          61.6504   88.3299   11.0767 C.2     1  UNL1        0.3428
      2 O          60.2892   88.3264   11.7069 O.2     1  UNL1       -0.2448
      3 C          65.3795   91.4063   13.9516 C.2     1  UNL1        0.1222
      4 C          64.7708   90.1007   14.3696 C.2     1  UNL1        0.0328
      5 C          63.7853   89.4115   13.4730 C.2     1  UNL1        0.0042
      6 C          63.4085   90.0280   12.1585 C.2     1  UNL1        0.0218
      7 C          62.4723   89.5846   11.0736 C.2     1  UNL1        0.0958
      8 C          62.5025   90.6162    9.9851 C.2     1  UNL1        0.1049
      9 N          63.4572   91.6972   10.3973 N.2     1  UNL1       -0.2475
     10 C          64.0172   91.3336   11.7406 C.2     1  UNL1        0.0668
     11 C          65.0027   92.0228   12.6371 C.3     1  UNL1        0.1095
     12 C          66.8809   93.4574   14.4890 C.3     1  UNL1        0.2520
     13 O          66.3650   92.0955   14.8481 O.2     1  UNL1       -0.4753
     14 O          62.1895   87.0785   10.4494 O.3     1  UNL1       -0.4454
     15 C          61.7215   85.7369   10.9300 C.3     1  UNL1        0.2087
     16 C          62.7119   84.6326   11.1527 C.3     1  UNL1        0.0445
     17 C          63.0284   84.1789   12.5470 C.3     1  UNL1        0.0210
     18 C          64.0188   83.0746   12.7698 C.3     1  UNL1        0.0722
     19 N          64.6928   82.4240   11.5982 N.3     1  UNL1       -0.2727
     20 C          64.3763   82.8777   10.2040 C.3     1  UNL1        0.0722
     21 C          63.3859   83.9820    9.9812 C.3     1  UNL1        0.0210
     22 C          64.1571   83.0252   11.4263 C.3     1  UNL1        0.0722
     23 C          63.2615   84.0238   11.2250 C.3     1  UNL1        0.0210
@<TRIPOS>BOND
     1    12    13    1
     2    13     3    1
     3     3     4    2
     4     4     5    1
     5     5     6    2
     6     6     7    1
     7     7     1    1
     8     1     2    2
     9     1    14    1
    10    14    15    1
    11    15    16    1
    12    16    17    1
    13    17    18    1
    14    18    19    1
    15    19    20    1
    16    20    21    1
    17    19    22    1
    18    22    23    1
    19     7     8    2
    20     8     9    1
    21     9    10    2
    22    10    11    1
    23    11     3    1
    24    10     6    1
    25    21    16    1
    26    23    16    1
@<TRIPOS>MOLECULE
*****
 23 26 0 0 0
SMALL
GASTEIGER

@<TRIPOS>ATOM
      1 C          62.7651   89.9438   11.6398 C.2     1  UNL1        0.3428
      2 O          61.9311   89.7182   12.8660 O.2     1  UNL1       -0.2448
      3 C          66.5652   92.8385   14.6089 C.2     1  UNL1        0.1222
      4 C          65.7307   91.6874   15.0867 C.2     1  UNL1        0.0328
      5 C          64.7594   91.0270   14.1537 C.2     1  UNL1        0.0042
      6 C          64.6227   91.5177   12.7429 C.2     1  UNL1        0.0218
      7 C          63.7565   91.0689   11.6035 C.2     1  UNL1        0.0958
      8 C          64.0557   91.9426   10.4215 C.2     1  UNL1        0.1049
      9 N          65.1068   92.9315   10.8304 N.2     1  UNL1       -0.2475
     10 C          65.4573   92.6688   12.2651 C.2     1  UNL1        0.0668
     11 C          66.4285   93.3292   13.1981 C.3     1  UNL1        0.1095
     12 C          68.7737   92.7701   15.9756 C.3     1  UNL1        0.2520
     13 O          67.5365   93.4989   15.5419 O.2     1  UNL1       -0.4753
     14 O          62.6076   89.0442   10.4499 O.3     1  UNL1       -0.4454
     15 C          62.0177   87.6753   10.6174 C.3     1  UNL1        0.2087
     16 C          61.3414   87.0032    9.4594 C.3     1  UNL1        0.0445
     17 C          59.9113   87.3218    9.1382 C.3     1  UNL1        0.0210
     18 C          59.2349   86.6497    7.9803 C.3     1  UNL1        0.0722
     19 N          59.9887   85.6590    7.1435 N.3     1  UNL1       -0.2727
     20 C          61.4188   85.3404    7.4647 C.3     1  UNL1        0.0722
     21 C          62.0952   86.0124    8.6227 C.3     1  UNL1        0.0210
     22 C          60.4017   86.0018    7.7679 C.3     1  UNL1        0.0722
     23 C          61.0133   86.6095    8.8150 C.3     1  UNL1        0.0210
@<TRIPOS>BOND
     1    12    13    1
     2    13     3    1
     3     3     4    2
     4     4     5    1
     5     5     6    2
     6     6     7    1
     7     7     1    1
     8     1     2    2
     9     1    14    1
    10    14    15    1
    11    15    16    1
    12    16    17    1
    13    17    18    1
    14    18    19    1
    15    19    20    1
    16    20    21    1
    17    19    22    1
    18    22    23    1
    19     7     8    2
    20     8     9    1
    21     9    10    2
    22    10    11    1
    23    11     3    1
    24    10     6    1
    25    21    16    1
    26    23    16    1
@<TRIPOS>MOLECULE
*****
 23 26 0 0 0
SMALL
GASTEIGER

@<TRIPOS>ATOM
      1 C          63.1928   89.5760   12.7164 C.2     1  UNL1        0.3428
      2 O          63.5267   88.1346   12.9628 O.2     1  UNL1       -0.2448
      3 C          66.3391   94.0329   11.3480 C.2     1  UNL1        0.1222
      4 C          65.5391   93.1710   10.4170 C.2     1  UNL1        0.0328
      5 C          64.7517   92.0138   10.9565 C.2     1  UNL1        0.0042
      6 C          64.7644   91.7187   12.4271 C.2     1  UNL1        0.0218
      7 C          64.0919   90.6549   13.2432 C.2     1  UNL1        0.0958
      8 C          64.4762   90.8594   14.6787 C.2     1  UNL1        0.1049
      9 N          65.3864   92.0496   14.7497 N.2     1  UNL1       -0.2475
     10 C          65.5645   92.5807   13.3582 C.2     1  UNL1        0.0668
     11 C          66.3518   93.7378   12.8186 C.3     1  UNL1        0.1095
     12 C          67.4745   95.2457    9.3505 C.3     1  UNL1        0.2520
     13 O          67.1265   95.1901   10.8085 O.2     1  UNL1       -0.4753
     14 O          61.9596   89.9385   11.9430 O.3     1  UNL1       -0.4454
     15 C          61.9731   89.8899   10.4439 C.3     1  UNL1        0.2087
     16 C          61.3838   88.7117    9.7264 C.3     1  UNL1        0.0445
     17 C          62.0436   87.3681    9.8228 C.3     1  UNL1        0.0210
     18 C          61.4543   86.1899    9.1054 C.3     1  UNL1        0.0722
     19 N          60.2053   86.3554    8.2914 N.3     1  UNL1       -0.2727
     20 C          59.5456   87.6991    8.1950 C.3     1  UNL1        0.0722
     21 C          60.1348   88.8773    8.9125 C.3     1  UNL1        0.0210
     22 C          60.4910   87.0303    8.6668 C.3     1  UNL1        0.0722
     23 C          61.0239   88.0955    9.3156 C.3     1  UNL1        0.0210
@<TRIPOS>BOND
     1    12    13    1
     2    13     3    1
     3     3     4    2
     4     4     5    1
     5     5     6    2
     6     6     7    1
     7     7     1    1
     8     1     2    2
     9     1    14    1
    10    14    15    1
    11    15    16    1
    12    16    17    1
    13    17    18    1
    14    18    19    1
    15    19    20    1
    16    20    21    1
    17    19    22    1
    18    22    23    1
    19     7     8    2
    20     8     9    1
    21     9    10    2
    22    10    11    1
    23    11     3    1
    24    10     6    1
    25    21    16    1
    26    23    16    1
@<TRIPOS>MOLECULE
*****
 23 26 0 0 0
SMALL
GASTEIGER

@<TRIPOS>ATOM
      1 C          63.6462   84.0648   14.3453 C.2     1  UNL1        0.3428
      2 O          63.7723   82.9182   15.3041 O.2     1  UNL1       -0.2448
      3 C          62.0275   85.6730    9.2043 C.2     1  UNL1        0.1222
      4 C          61.5536   86.2259   10.5157 C.2     1  UNL1        0.0328
      5 C          62.0951   85.6752   11.8015 C.2     1  UNL1        0.0042
      6 C          63.1107   84.5716   11.7761 C.2     1  UNL1        0.0218
      7 C          63.8192   83.8340   12.8733 C.2     1  UNL1        0.0958
      8 C          64.7311   82.8253   12.2401 C.2     1  UNL1        0.1049
      9 N          64.5862   82.9394   10.7515 N.2     1  UNL1       -0.2475
     10 C          63.5846   84.0187   10.4647 C.2     1  UNL1        0.0668
     11 C          63.0431   84.5694    9.1789 C.3     1  UNL1        0.1095
     12 C          60.0327   86.0595    7.5853 C.3     1  UNL1        0.2520
     13 O          61.4860   86.2237    7.9185 O.2     1  UNL1       -0.4753
     14 O          63.3471   85.4421   14.8586 O.3     1  UNL1       -0.4454
     15 C          64.4357   86.4723   14.9204 C.3     1  UNL1        0.2087
     16 C          64.0868   87.9252   15.0517 C.3     1  UNL1        0.0445
     17 C          63.5210   88.4472   16.3391 C.3     1  UNL1        0.0210
     18 C          63.1721   89.9002   16.4706 C.3     1  UNL1        0.0722
     19 N          63.3889   90.8311   15.3145 N.3     1  UNL1       -0.2727
     20 C          63.9547   90.3090   14.0272 C.3     1  UNL1        0.0722
     21 C          64.3037   88.8561   13.8957 C.3     1  UNL1        0.0210
     22 C          63.5953   90.0430   15.1951 C.3     1  UNL1        0.0722
     23 C          63.9108   88.7292   15.0763 C.3     1  UNL1        0.0210
@<TRIPOS>BOND
     1    12    13    1
     2    13     3    1
     3     3     4    2
     4     4     5    1
     5     5     6    2
     6     6     7    1
     7     7     1    1
     8     1     2    2
     9     1    14    1
    10    14    15    1
    11    15    16    1
    12    16    17    1
    13    17    18    1
    14    18    19    1
    15    19    20    1
    16    20    21    1
    17    19    22    1
    18    22    23    1
    19     7     8    2
    20     8     9    1
    21     9    10    2
    22    10    11    1
    23    11     3    1
    24    10     6    1
    25    21    16    1
    26    23    16    1
@<TRIPOS>MOLECULE
*****
 23 26 0 0 0
SMALL
GASTEIGER

@<TRIPOS>ATOM
      1 C          62.3056   86.4216   11.1776 C.2     1  UNL1        0.3428
      2 O          62.4812   85.6417    9.9085 O.2     1  UNL1       -0.2448
      3 C          64.4032   90.8391   13.9565 C.2     1  UNL1        0.1222
      4 C          64.4728   89.3976   14.3655 C.2     1  UNL1        0.0328
      5 C          63.8549   88.3413   13.4981 C.2     1  UNL1        0.0042
      6 C          63.1675   88.7263   12.2217 C.2     1  UNL1        0.0218
      7 C          62.4723   87.9123   11.1710 C.2     1  UNL1        0.0958
      8 C          61.9731   88.8507   10.1126 C.2     1  UNL1        0.1049
      9 N          62.3598   90.2447   10.5091 N.2     1  UNL1       -0.2475
     10 C          63.0980   90.1678   11.8127 C.2     1  UNL1        0.0668
     11 C          63.7159   91.2242   12.6801 C.3     1  UNL1        0.1095
     12 C          66.1967   92.6823   14.3251 C.3     1  UNL1        0.2520
     13 O          65.0211   91.8955   14.8238 O.2     1  UNL1       -0.4753
     14 O          61.9632   85.7109   12.4534 O.3     1  UNL1       -0.4454
     15 C          62.9616   84.7903   13.0902 C.3     1  UNL1        0.2087
     16 C          62.7682   83.3048   13.0128 C.3     1  UNL1        0.0445
     17 C          63.1402   82.5642   11.7626 C.3     1  UNL1        0.0210
     18 C          62.9468   81.0787   11.6851 C.3     1  UNL1        0.0722
     19 N          62.3813   80.3339   12.8579 N.3     1  UNL1       -0.2727
     20 C          62.0092   81.0745   14.1081 C.3     1  UNL1        0.0722
     21 C          62.2027   82.5600   14.1856 C.3     1  UNL1        0.0210
     22 C          62.4690   81.1476   12.9474 C.3     1  UNL1        0.0722
     23 C          62.6440   82.4909   13.0174 C.3     1  UNL1        0.0210
@<TRIPOS>BOND
     1    12    13    1
     2    13     3    1
     3     3     4    2
     4     4     5    1
     5     5     6    2
     6     6     7    1
     7     7     1    1
     8     1     2    2
     9     1    14    1
    10    14    15    1
    11    15    16    1
    12    16    17    1
    13    17    18    1
    14    18    19    1
    15    19    20    1
    16    20    21    1
    17    19    22    1
    18    22    23    1
    19     7     8    2
    20     8     9    1
    21     9    10    2
    22    10    11    1
    23    11     3    1
    24    10     6    1
    25    21    16    1
    26    23    16    1
@<TRIPOS>MOLECULE
*****
 23 26 0 0 0
SMALL
GASTEIGER

@<TRIPOS>ATOM
      1 C          62.5503   85.6338   11.4566 C.2     1  UNL1        0.3428
      2 O          62.9675   84.5848   10.4690 O.2     1  UNL1       -0.2448
      3 C          59.4940   88.4736    7.6843 C.2     1  UNL1        0.1222
      4 C          59.6196   86.9842    7.8092 C.2     1  UNL1        0.0328
      5 C          60.4849   86.3918    8.8818 C.2     1  UNL1        0.0042
      6 C          61.2245   87.2889    9.8295 C.2     1  UNL1        0.0218
      7 C          62.1445   86.9960   10.9774 C.2     1  UNL1        0.0958
      8 C          62.5875   88.3045   11.5619 C.2     1  UNL1        0.1049
      9 N          61.9413   89.4061   10.7753 N.2     1  UNL1       -0.2475
     10 C          61.0989   88.7784    9.7045 C.2     1  UNL1        0.0668
     11 C          60.2336   89.3708    8.6319 C.3     1  UNL1        0.1095
     12 C          59.1199   90.2369    5.8132 C.3     1  UNL1        0.2520
     13 O          58.6287   89.0660    6.6117 O.2     1  UNL1       -0.4753
     14 O          62.5389   85.3206   12.9235 O.3     1  UNL1       -0.4454
     15 C          63.3874   84.2056   13.4590 C.3     1  UNL1        0.2087
     16 C          62.8959   82.7900   13.3911 C.3     1  UNL1        0.0445
     17 C          61.8675   82.3054   14.3696 C.3     1  UNL1        0.0210
     18 C          61.3759   80.8899   14.3019 C.3     1  UNL1        0.0722
     19 N          61.9128   79.9589   13.2555 N.3     1  UNL1       -0.2727
     20 C          62.9412   80.4434   12.2769 C.3     1  UNL1        0.0722
     21 C          63.4327   81.8590   12.3447 C.3     1  UNL1        0.0210
     22 C          62.2125   80.7257   13.2532 C.3     1  UNL1        0.0722
     23 C          62.6569   82.0058   13.3146 C.3     1  UNL1        0.0210
@<TRIPOS>BOND
     1    12    13    1
     2    13     3    1
     3     3     4    2
     4     4     5    1
     5     5     6    2
     6     6     7    1
     7     7     1    1
     8     1     2    2
     9     1    14    1
    10    14    15    1
    11    15    16    1
    12    16    17    1
    13    17    18    1
    14    18    19    1
    15    19    20    1
    16    20    21    1
    17    19    22    1
    18    22    23    1
    19     7     8    2
    20     8     9    1
    21     9    10    2
    22    10    11    1
    23    11     3    1
    24    10     6    1
    25    21    16    1
    26    23    16    1
@<TRIPOS>MOLECULE
*****
 23 26 0 0 0
SMALL
GASTEIGER

@<TRIPOS>ATOM
      1 C          63.6158   83.6577   10.6902 C.2     1  UNL1        0.3428
      2 O          64.6983   82.8396   10.0506 O.2     1  UNL1       -0.2448
      3 C          63.3406   85.3817   16.0370 C.2     1  UNL1        0.1222
      4 C          63.9733   86.1050   14.8853 C.2     1  UNL1        0.0328
      5 C          63.9554   85.4945   13.5152 C.2     1  UNL1        0.0042
      6 C          63.3048   84.1607   13.2969 C.2     1  UNL1        0.0218
      7 C          63.1333   83.3166   12.0689 C.2     1  UNL1        0.0958
      8 C          62.3946   82.0716   12.4617 C.2     1  UNL1        0.1049
      9 N          62.1095   82.1462   13.9324 N.2     1  UNL1       -0.2475
     10 C          62.6721   83.4374   14.4486 C.2     1  UNL1        0.0668
     11 C          62.6900   84.0479   15.8186 C.3     1  UNL1        0.1095
     12 C          62.7528   87.3458   17.6329 C.3     1  UNL1        0.2520
     13 O          63.3584   85.9922   17.4070 O.2     1  UNL1       -0.4753
     14 O          63.0158   84.8168    9.9510 O.3     1  UNL1       -0.4454
     15 C          61.7745   85.4776   10.4728 C.3     1  UNL1        0.2087
     16 C          61.1309   86.5862    9.6938 C.3     1  UNL1        0.0445
     17 C          60.1882   86.2655    8.5720 C.3     1  UNL1        0.0210
     18 C          59.5446   87.3741    7.7929 C.3     1  UNL1        0.0722
     19 N          59.8437   88.8034    8.1358 N.3     1  UNL1       -0.2727
     20 C          60.7864   89.1241    9.2576 C.3     1  UNL1        0.0722
     21 C          61.4300   88.0156   10.0367 C.3     1  UNL1        0.0210
     22 C          60.2205   88.2301    8.5911 C.3     1  UNL1        0.0722
     23 C          60.8024   87.2276    9.2954 C.3     1  UNL1        0.0210
@<TRIPOS>BOND
     1    12    13    1
     2    13     3    1
     3     3     4    2
     4     4     5    1
     5     5     6    2
     6     6     7    1
     7     7     1    1
     8     1     2    2
     9     1    14    1
    10    14    15    1
    11    15    16    1
    12    16    17    1
    13    17    18    1
    14    18    19    1
    15    19    20    1
    16    20    21    1
    17    19    22    1
    18    22    23    1
    19     7     8    2
    20     8     9    1
    21     9    10    2
    22    10    11    1
    23    11     3    1
    24    10     6    1
    25    21    16    1
    26    23    16    1
@<TRIPOS>MOLECULE
*****
 23 26 0 0 0
SMALL
GASTEIGER

@<TRIPOS>ATOM
      1 C          63.4657   83.2662   13.0999 C.2     1  UNL1        0.3428
      2 O          62.3510   82.4357   13.6636 O.2     1  UNL1       -0.2448
      3 C          61.3850   87.0096    9.4538 C.2     1  UNL1        0.1222
      4 C          61.1359   86.9523   10.9318 C.2     1  UNL1        0.0328
      5 C          61.7765   85.8777   11.7593 C.2     1  UNL1        0.0042
      6 C          62.6662   84.8603   11.1088 C.2     1  UNL1        0.0218
      7 C          63.4296   83.6939   11.6626 C.2     1  UNL1        0.0958
      8 C          64.1505   83.0302   10.5269 C.2     1  UNL1        0.1049
      9 N          63.8327   83.7865    9.2711 N.2     1  UNL1       -0.2475
     10 C          62.9154   84.9176    9.6308 C.2     1  UNL1        0.0668
     11 C          62.2747   85.9922    8.8033 C.3     1  UNL1        0.1095
     12 C          60.1995   89.3154    9.2875 C.3     1  UNL1        0.2520
     13 O          60.7444   88.0843    8.6263 O.2     1  UNL1       -0.4753
     14 O          64.6165   83.6690   13.9736 O.3     1  UNL1       -0.4454
     15 C          64.3636   84.1581   15.3689 C.3     1  UNL1        0.2087
     16 C          64.0445   85.6037   15.6106 C.3     1  UNL1        0.0445
     17 C          64.5158   86.6479   14.6423 C.3     1  UNL1        0.0210
     18 C          64.1968   88.0936   14.8840 C.3     1  UNL1        0.0722
     19 N          63.4063   88.4950   16.0939 N.3     1  UNL1       -0.2727
     20 C          62.9350   87.4508   17.0622 C.3     1  UNL1        0.0722
     21 C          63.2541   86.0052   16.8206 C.3     1  UNL1        0.0210
     22 C          63.5566   87.6905   16.0039 C.3     1  UNL1        0.0722
     23 C          63.8452   86.3833   15.7853 C.3     1  UNL1        0.0210
@<TRIPOS>BOND
     1    12    13    1
     2    13     3    1
     3     3     4    2
     4     4     5    1
     5     5     6    2
     6     6     7    1
     7     7     1    1
     8     1     2    2
     9     1    14    1
    10    14    15    1
    11    15    16    1
    12    16    17    1
    13    17    18    1
    14    18    19    1
    15    19    20    1
    16    20    21    1
    17    19    22    1
    18    22    23    1
    19     7     8    2
    20     8     9    1
    21     9    10    2
    22    10    11    1
    23    11     3    1
    24    10     6    1
    25    21    16    1
    26    23    16    1
@<TRIPOS>MOLECULE
*****
 23 26 0 0 0
SMALL
GASTEIGER

@<TRIPOS>ATOM
      1 C          64.0437   89.1101   13.8515 C.2     1  UNL1        0.3428
      2 O          65.1433   90.0217   14.3094 O.2     1  UNL1       -0.2448
      3 C          61.1990   86.8381    9.5641 C.2     1  UNL1        0.1222
      4 C          61.7975   86.1169   10.7352 C.2     1  UNL1        0.0328
      5 C          62.5286   86.8857   11.7956 C.2     1  UNL1        0.0042
      6 C          62.6612   88.3757   11.6849 C.2     1  UNL1        0.0218
      7 C          63.3204   89.3931   12.5682 C.2     1  UNL1        0.0958
      8 C          63.1293   90.7431   11.9430 C.2     1  UNL1        0.1049
      9 N          62.3520   90.5601   10.6733 N.2     1  UNL1       -0.2475
     10 C          62.0627   89.0969   10.5138 C.2     1  UNL1        0.0668
     11 C          61.3316   88.3281    9.4534 C.3     1  UNL1        0.1095
     12 C          59.2630   86.6674    7.8399 C.3     1  UNL1        0.2520
     13 O          60.4679   86.0693    8.5037 O.2     1  UNL1       -0.4753
     14 O          63.6674   87.9155   14.6769 O.3     1  UNL1       -0.4454
     15 C          64.6297   86.7748   14.8277 C.3     1  UNL1        0.2087
     16 C          64.1413   85.3612   14.7125 C.3     1  UNL1        0.0445
     17 C          63.0812   84.8556   15.6455 C.3     1  UNL1        0.0210
     18 C          62.5927   83.4420   15.5303 C.3     1  UNL1        0.0722
     19 N          63.1645   82.5340   14.4822 N.3     1  UNL1       -0.2727
     20 C          64.2247   83.0396   13.5492 C.3     1  UNL1        0.0722
     21 C          64.7131   84.4532   13.6644 C.3     1  UNL1        0.0210
     22 C          63.4638   83.3007   14.5068 C.3     1  UNL1        0.0722
     23 C          63.9054   84.5789   14.6110 C.3     1  UNL1        0.0210
@<TRIPOS>BOND
     1    12    13    1
     2    13     3    1
     3     3     4    2
     4     4     5    1
     5     5     6    2
     6     6     7    1
     7     7     1    1
     8     1     2    2
     9     1    14    1
    10    14    15    1
    11    15    16    1
    12    16    17    1
    13    17    18    1
    14    18    19    1
    15    19    20    1
    16    20    21    1
    17    19    22    1
    18    22    23    1
    19     7     8    2
    20     8     9    1
    21     9    10    2
    22    10    11    1
    23    11     3    1
    24    10     6    1
    25    21    16    1
    26    23    16    1
