@<TRIPOS>MOLECULE
*****
 43 47 0 0 0
SMALL
GASTEIGER

@<TRIPOS>ATOM
      1 C          63.3743   86.9866   13.0311 C.2     1  UNL1        0.2411
      2 O          63.8881   86.8391   13.8574 O.2     1  UNL1       -0.2733
      3 N          63.2399   88.4377   12.6758 N.am    1  UNL1       -0.2966
      4 H          62.7447   88.7027   11.8672 H       1  UNL1        0.1499
      5 C          62.7542   85.9393   12.1544 C.3     1  UNL1        0.1556
      6 C          61.2545   86.5497   10.1226 C.2     1  UNL1        0.4017
      7 O          62.4771   86.7108    9.2686 O.2     1  UNL1       -0.2264
      8 N          61.3931   86.1640   11.5656 N.am    1  UNL1       -0.2637
      9 H          60.5906   86.0583   12.1261 H       1  UNL1        0.1532
     10 O          59.8934   86.7744    9.5337 O.3     1  UNL1       -0.4419
     11 C          60.1388   88.8768    9.3931 C.3     1  UNL1        0.0437
     12 C          59.7040   87.7943    8.4502 C.3     1  UNL1        0.1378
     13 C          59.2693   86.7118    7.5073 C.3     1  UNL1        0.0437
     14 C          59.5147   88.8142    7.3667 C.3     1  UNL1        0.0437
     15 C          63.4952   84.6672   11.8667 C.3     1  UNL1        0.0600
     16 C          63.0331   83.3761   12.4747 C.ar    1  UNL1        0.0371
     17 C          62.4940   83.3568   13.8743 C.ar    1  UNL1        0.1385
     18 F          62.3975   84.1244   14.4825 F       1  UNL1       -0.2044
     19 C          62.0320   82.0657   14.4822 C.ar    1  UNL1        0.0318
     20 C          62.1091   80.7940   13.6905 C.ar    1  UNL1        0.0342
     21 C          62.6482   80.8133   12.2909 C.ar    1  UNL1        0.1672
     22 F          62.7253   79.5416   11.4993 F       1  UNL1       -0.2018
     23 C          63.1102   82.1044   11.6830 C.ar    1  UNL1        0.1656
     24 F          63.6494   82.1238   10.2833 F       1  UNL1       -0.2021
     25 C          63.8601   89.4851   13.5524 C.3     1  UNL1        0.1543
     26 C          64.3877   90.7526   12.9481 C.ar    1  UNL1        0.1417
     27 N          64.3351   91.1257   11.4963 N.ar    1  UNL1       -0.2276
     28 C          64.9754   92.4733   11.3405 C.ar    1  UNL1        0.1167
     29 C          65.2082   93.3411   10.1394 C.ar    1  UNL1        0.0238
     30 C          65.8892   94.6685   10.2939 C.ar    1  UNL1        0.0223
     31 C          66.3375   95.1282   11.6496 C.ar    1  UNL1        0.1006
     32 N          66.1048   94.2604   12.8507 N.ar    1  UNL1       -0.2252
     33 C          65.4237   92.9329   12.6961 C.ar    1  UNL1        0.1626
     34 N          65.0604   91.8695   13.6897 N.ar    1  UNL1       -0.2990
     35 C          65.3238   91.9150   15.1657 C.3     1  UNL1        0.0898
     36 C          65.0793   91.8443   16.6439 C.3     1  UNL1        0.0273
     37 C          63.9530   91.5961   15.6849 C.3     1  UNL1        0.0273
     38 C          66.7859   92.2497   15.1593 C.ar    1  UNL1       -0.0037
     39 C          67.3200   93.2952   16.0927 C.ar    1  UNL1       -0.0025
     40 C          68.7823   93.6299   16.0863 C.ar    1  UNL1       -0.0003
     41 C          69.7102   92.9190   15.1464 C.ar    1  UNL1       -0.0000
     42 C          69.1760   91.8734   14.2128 C.ar    1  UNL1       -0.0003
     43 C          67.7139   91.5387   14.2193 C.ar    1  UNL1       -0.0025
@<TRIPOS>BOND
     1    11    12    1
     2    12    13    1
     3    12    14    1
     4    12    10    1
     5    10     6    1
     6     6     7    2
     7     6     8   am
     8     8     5    1
     9     5    15    1
    10    15    16    1
    11    16    17   ar
    12    17    18    1
    13    17    19   ar
    14    19    20   ar
    15    20    21   ar
    16    21    22    1
    17    21    23   ar
    18    23    24    1
    19     5     1    1
    20     1     2    2
    21     1     3   am
    22     3    25    1
    23    25    26    1
    24    26    27   ar
    25    27    28   ar
    26    28    29   ar
    27    29    30   ar
    28    30    31   ar
    29    31    32   ar
    30    32    33   ar
    31    33    34   ar
    32    34    35    1
    33    35    38    1
    34    38    39   ar
    35    39    40   ar
    36    40    41   ar
    37    41    42   ar
    38    42    43   ar
    39    35    36    1
    40    36    37    1
    41    23    16   ar
    42    34    26   ar
    43    37    35    1
    44    33    28   ar
    45    43    38   ar
    46     8     9    1
    47     3     4    1
@<TRIPOS>MOLECULE
*****
 43 47 0 0 0
SMALL
GASTEIGER

@<TRIPOS>ATOM
      1 C          62.5931   89.9654   11.8270 C.2     1  UNL1        0.2411
      2 O          62.3762   90.6538   12.4959 O.2     1  UNL1       -0.2733
      3 N          63.6681   90.3937   10.8726 N.am    1  UNL1       -0.2966
      4 H          63.9657   89.7830   10.1601 H       1  UNL1        0.1499
      5 C          61.9716   88.6064   11.6959 C.3     1  UNL1        0.1556
      6 C          63.5291   87.3229   13.3320 C.2     1  UNL1        0.4017
      7 O          63.4982   88.4885   14.2758 O.2     1  UNL1       -0.2264
      8 N          62.7658   87.3820   12.0421 N.am    1  UNL1       -0.2637
      9 H          62.7861   86.6170   11.4227 H       1  UNL1        0.1532
     10 O          64.3233   86.0985   13.6782 O.3     1  UNL1       -0.4419
     11 C          63.3636   84.3346   12.9944 C.3     1  UNL1        0.0437
     12 C          63.6521   84.9316   14.3399 C.3     1  UNL1        0.1378
     13 C          63.9406   85.5286   15.6854 C.3     1  UNL1        0.0437
     14 C          62.9809   83.7646   15.0016 C.3     1  UNL1        0.0437
     15 C          60.5560   88.4721   11.2185 C.3     1  UNL1        0.0600
     16 C          60.2761   87.9677    9.8338 C.ar    1  UNL1        0.0371
     17 C          60.5045   86.5230    9.5015 C.ar    1  UNL1        0.1385
     18 F          60.8331   85.8205   10.1074 F       1  UNL1       -0.2044
     19 C          60.2246   86.0186    8.1168 C.ar    1  UNL1        0.0318
     20 C          59.7163   86.9590    7.0646 C.ar    1  UNL1        0.0342
     21 C          59.4878   88.4037    7.3969 C.ar    1  UNL1        0.1672
     22 F          58.9795   89.3441    6.3447 F       1  UNL1       -0.2018
     23 C          59.7677   88.9081    8.7816 C.ar    1  UNL1        0.1656
     24 F          59.5393   90.3529    9.1140 F       1  UNL1       -0.2021
     25 C          64.2896   91.7526   11.0037 C.3     1  UNL1        0.1543
     26 C          65.2011   92.0523   12.1566 C.ar    1  UNL1        0.1417
     27 N          64.8451   91.9553   13.6105 N.ar    1  UNL1       -0.2276
     28 C          66.0527   92.3448   14.4105 C.ar    1  UNL1        0.1167
     29 C          66.2909   92.4355   15.8886 C.ar    1  UNL1        0.0238
     30 C          67.6315   92.8639   16.4073 C.ar    1  UNL1        0.0223
     31 C          68.7340   93.2016   15.4479 C.ar    1  UNL1        0.1006
     32 N          68.4958   93.1109   13.9697 N.ar    1  UNL1       -0.2252
     33 C          67.1551   92.6825   13.4510 C.ar    1  UNL1        0.1626
     34 N          66.6288   92.5017   12.0581 N.ar    1  UNL1       -0.2990
     35 C          67.3957   92.7303   10.7893 C.3     1  UNL1        0.0898
     36 C          68.3322   92.4820    9.6442 C.3     1  UNL1        0.0273
     37 C          68.1506   91.4368   10.7046 C.3     1  UNL1        0.0273
     38 C          66.9071   94.1031   10.4333 C.ar    1  UNL1       -0.0037
     39 C          67.0817   94.6225    9.0371 C.ar    1  UNL1       -0.0025
     40 C          66.5931   95.9954    8.6811 C.ar    1  UNL1       -0.0003
     41 C          65.9300   96.8486    9.7214 C.ar    1  UNL1       -0.0000
     42 C          65.7555   96.3291   11.1177 C.ar    1  UNL1       -0.0003
     43 C          66.2440   94.9563   11.4737 C.ar    1  UNL1       -0.0025
@<TRIPOS>BOND
     1    11    12    1
     2    12    13    1
     3    12    14    1
     4    12    10    1
     5    10     6    1
     6     6     7    2
     7     6     8   am
     8     8     5    1
     9     5    15    1
    10    15    16    1
    11    16    17   ar
    12    17    18    1
    13    17    19   ar
    14    19    20   ar
    15    20    21   ar
    16    21    22    1
    17    21    23   ar
    18    23    24    1
    19     5     1    1
    20     1     2    2
    21     1     3   am
    22     3    25    1
    23    25    26    1
    24    26    27   ar
    25    27    28   ar
    26    28    29   ar
    27    29    30   ar
    28    30    31   ar
    29    31    32   ar
    30    32    33   ar
    31    33    34   ar
    32    34    35    1
    33    35    38    1
    34    38    39   ar
    35    39    40   ar
    36    40    41   ar
    37    41    42   ar
    38    42    43   ar
    39    35    36    1
    40    36    37    1
    41    23    16   ar
    42    34    26   ar
    43    37    35    1
    44    33    28   ar
    45    43    38   ar
    46     8     9    1
    47     3     4    1
@<TRIPOS>MOLECULE
*****
 43 47 0 0 0
SMALL
GASTEIGER

@<TRIPOS>ATOM
      1 C          62.8541   89.6970   11.5523 C.2     1  UNL1        0.2411
      2 O          62.5304   90.1721   12.3510 O.2     1  UNL1       -0.2733
      3 N          63.7978   90.5179   10.7243 N.am    1  UNL1       -0.2966
      4 H          64.1845   90.1420    9.9006 H       1  UNL1        0.1499
      5 C          62.4996   88.3034   11.1252 C.3     1  UNL1        0.1556
      6 C          62.5255   85.8829   12.0692 C.2     1  UNL1        0.4017
      7 O          63.4676   85.4676   10.9783 O.2     1  UNL1       -0.2264
      8 N          62.0415   87.3009   12.1426 N.am    1  UNL1       -0.2637
      9 H          61.4232   87.5735   12.8586 H       1  UNL1        0.1532
     10 O          62.0674   84.8804   13.0865 O.3     1  UNL1       -0.4419
     11 C          63.5902   84.8673   14.5632 C.3     1  UNL1        0.0437
     12 C          63.0262   83.8537   13.6122 C.3     1  UNL1        0.1378
     13 C          62.4622   82.8401   12.6613 C.3     1  UNL1        0.0437
     14 C          63.9851   82.8269   14.1380 C.3     1  UNL1        0.0437
     15 C          62.6033   87.9123    9.6808 C.3     1  UNL1        0.0600
     16 C          61.3915   87.4153    8.9496 C.ar    1  UNL1        0.0371
     17 C          60.0949   88.1625    9.0518 C.ar    1  UNL1        0.1385
     18 F          59.9238   88.9844    9.5655 F       1  UNL1       -0.2044
     19 C          58.8832   87.6655    8.3206 C.ar    1  UNL1        0.0318
     20 C          58.9681   86.4213    7.4871 C.ar    1  UNL1        0.0342
     21 C          60.2647   85.6740    7.3849 C.ar    1  UNL1        0.1672
     22 F          60.3496   84.4298    6.5515 F       1  UNL1       -0.2018
     23 C          61.4764   86.1711    8.1161 C.ar    1  UNL1        0.1656
     24 F          62.7731   85.4238    8.0139 F       1  UNL1       -0.2021
     25 C          64.1523   91.9114   11.1513 C.3     1  UNL1        0.1543
     26 C          65.1306   92.1278   12.2676 C.ar    1  UNL1        0.1417
     27 N          64.8230   92.0636   13.7343 N.ar    1  UNL1       -0.2276
     28 C          66.0905   92.3425   14.4864 C.ar    1  UNL1        0.1167
     29 C          66.3922   92.4116   15.9541 C.ar    1  UNL1        0.0238
     30 C          67.7849   92.7173   16.4199 C.ar    1  UNL1        0.0223
     31 C          68.8759   92.9539   15.4180 C.ar    1  UNL1        0.1006
     32 N          68.5742   92.8848   13.9503 N.ar    1  UNL1       -0.2252
     33 C          67.1815   92.5791   13.4845 C.ar    1  UNL1        0.1626
     34 N          66.5882   92.4464   12.1132 N.ar    1  UNL1       -0.2990
     35 C          67.3235   92.6046   10.8154 C.3     1  UNL1        0.0898
     36 C          68.1850   92.2708    9.6337 C.3     1  UNL1        0.0273
     37 C          67.9423   91.2430   10.6989 C.3     1  UNL1        0.0273
     38 C          66.9602   94.0209   10.4811 C.ar    1  UNL1       -0.0037
     39 C          67.3911   94.6171    9.1739 C.ar    1  UNL1       -0.0025
     40 C          67.0278   96.0336    8.8395 C.ar    1  UNL1       -0.0003
     41 C          66.2336   96.8537    9.8124 C.ar    1  UNL1       -0.0000
     42 C          65.8026   96.2575   11.1197 C.ar    1  UNL1       -0.0003
     43 C          66.1660   94.8411   11.4540 C.ar    1  UNL1       -0.0025
@<TRIPOS>BOND
     1    11    12    1
     2    12    13    1
     3    12    14    1
     4    12    10    1
     5    10     6    1
     6     6     7    2
     7     6     8   am
     8     8     5    1
     9     5    15    1
    10    15    16    1
    11    16    17   ar
    12    17    18    1
    13    17    19   ar
    14    19    20   ar
    15    20    21   ar
    16    21    22    1
    17    21    23   ar
    18    23    24    1
    19     5     1    1
    20     1     2    2
    21     1     3   am
    22     3    25    1
    23    25    26    1
    24    26    27   ar
    25    27    28   ar
    26    28    29   ar
    27    29    30   ar
    28    30    31   ar
    29    31    32   ar
    30    32    33   ar
    31    33    34   ar
    32    34    35    1
    33    35    38    1
    34    38    39   ar
    35    39    40   ar
    36    40    41   ar
    37    41    42   ar
    38    42    43   ar
    39    35    36    1
    40    36    37    1
    41    23    16   ar
    42    34    26   ar
    43    37    35    1
    44    33    28   ar
    45    43    38   ar
    46     8     9    1
    47     3     4    1
@<TRIPOS>MOLECULE
*****
 43 47 0 0 0
SMALL
GASTEIGER

@<TRIPOS>ATOM
      1 C          63.7487   87.0075   13.8117 C.2     1  UNL1        0.2411
      2 O          64.1001   87.0323   14.7306 O.2     1  UNL1       -0.2733
      3 N          63.6106   88.3701   13.2000 N.am    1  UNL1       -0.2966
      4 H          63.2678   88.4651   12.2820 H       1  UNL1        0.1499
      5 C          63.3645   85.7896   13.0247 C.3     1  UNL1        0.1556
      6 C          61.8352   86.6623   11.1142 C.2     1  UNL1        0.4017
      7 O          62.9172   87.6055   10.6789 O.2     1  UNL1       -0.2264
      8 N          62.0589   85.7543   12.2872 N.am    1  UNL1       -0.2637
      9 H          61.3487   85.1353   12.5729 H       1  UNL1        0.1532
     10 O          60.5295   86.6269   10.3767 O.3     1  UNL1       -0.4419
     11 C          59.3258   87.1936    8.7245 C.3     1  UNL1        0.0437
     12 C          60.5018   86.2825    8.9171 C.3     1  UNL1        0.1378
     13 C          61.6777   85.3715    9.1097 C.3     1  UNL1        0.0437
     14 C          60.4740   85.9382    7.4574 C.3     1  UNL1        0.0437
     15 C          64.2861   84.6071   12.9752 C.3     1  UNL1        0.0600
     16 C          63.8033   83.3030   12.4127 C.ar    1  UNL1        0.0371
     17 C          64.1791   82.9034   11.0167 C.ar    1  UNL1        0.1385
     18 F          64.7333   83.4136   10.3834 F       1  UNL1       -0.2044
     19 C          63.6963   81.5993   10.4543 C.ar    1  UNL1        0.0318
     20 C          62.8377   80.6950   11.2879 C.ar    1  UNL1        0.0342
     21 C          62.4619   81.0946   12.6839 C.ar    1  UNL1        0.1672
     22 F          61.6033   80.1903   13.5176 F       1  UNL1       -0.2018
     23 C          62.9447   82.3987   13.2464 C.ar    1  UNL1        0.1656
     24 F          62.5689   82.7984   14.6425 F       1  UNL1       -0.2021
     25 C          63.9947   89.5879   13.9870 C.3     1  UNL1        0.1543
     26 C          64.4884   90.8141   13.2780 C.ar    1  UNL1        0.1417
     27 N          64.3769   91.0872   11.8073 N.ar    1  UNL1       -0.2276
     28 C          64.9999   92.4244   11.5356 C.ar    1  UNL1        0.1167
     29 C          65.1792   93.2096   10.2702 C.ar    1  UNL1        0.0238
     30 C          65.8551   94.5482   10.3076 C.ar    1  UNL1        0.0223
     31 C          66.3516   95.1015   11.6104 C.ar    1  UNL1        0.1006
     32 N          66.1723   94.3163   12.8758 N.ar    1  UNL1       -0.2252
     33 C          65.4965   92.9777   12.8383 C.ar    1  UNL1        0.1626
     34 N          65.1803   91.9825   13.9152 N.ar    1  UNL1       -0.2990
     35 C          65.5000   92.1299   15.3733 C.3     1  UNL1        0.0898
     36 C          65.3088   92.1795   16.8602 C.3     1  UNL1        0.0273
     37 C          64.1400   91.8997   15.9628 C.3     1  UNL1        0.0273
     38 C          66.9711   92.4112   15.2903 C.ar    1  UNL1       -0.0037
     39 C          67.8365   91.6107   14.3630 C.ar    1  UNL1       -0.0025
     40 C          69.3076   91.8920   14.2800 C.ar    1  UNL1       -0.0003
     41 C          69.9131   92.9739   15.1244 C.ar    1  UNL1       -0.0000
     42 C          69.0475   93.7744   16.0518 C.ar    1  UNL1       -0.0003
     43 C          67.5765   93.4931   16.1348 C.ar    1  UNL1       -0.0025
@<TRIPOS>BOND
     1    11    12    1
     2    12    13    1
     3    12    14    1
     4    12    10    1
     5    10     6    1
     6     6     7    2
     7     6     8   am
     8     8     5    1
     9     5    15    1
    10    15    16    1
    11    16    17   ar
    12    17    18    1
    13    17    19   ar
    14    19    20   ar
    15    20    21   ar
    16    21    22    1
    17    21    23   ar
    18    23    24    1
    19     5     1    1
    20     1     2    2
    21     1     3   am
    22     3    25    1
    23    25    26    1
    24    26    27   ar
    25    27    28   ar
    26    28    29   ar
    27    29    30   ar
    28    30    31   ar
    29    31    32   ar
    30    32    33   ar
    31    33    34   ar
    32    34    35    1
    33    35    38    1
    34    38    39   ar
    35    39    40   ar
    36    40    41   ar
    37    41    42   ar
    38    42    43   ar
    39    35    36    1
    40    36    37    1
    41    23    16   ar
    42    34    26   ar
    43    37    35    1
    44    33    28   ar
    45    43    38   ar
    46     8     9    1
    47     3     4    1
@<TRIPOS>MOLECULE
*****
 43 47 0 0 0
SMALL
GASTEIGER

@<TRIPOS>ATOM
      1 C          62.4628   90.0335    9.8110 C.2     1  UNL1        0.2411
      2 O          63.2729   89.5146    9.6034 O.2     1  UNL1       -0.2733
      3 N          62.7536   91.4682   10.1382 N.am    1  UNL1       -0.2966
      4 H          62.0165   92.0812   10.3620 H       1  UNL1        0.1499
      5 C          61.0489   89.5328    9.8249 C.3     1  UNL1        0.1556
      6 C          59.7075   88.9816    7.6692 C.2     1  UNL1        0.4017
      7 O          60.2753   87.5932    7.6709 O.2     1  UNL1       -0.2264
      8 N          60.0943   89.9514    8.7463 N.am    1  UNL1       -0.2637
      9 H          59.7217   90.8627    8.7452 H       1  UNL1        0.1532
     10 O          58.7530   89.4003    6.5905 O.3     1  UNL1       -0.4419
     11 C          57.6351   90.8957    5.5837 C.3     1  UNL1        0.0437
     12 C          59.0917   90.5561    5.6965 C.3     1  UNL1        0.1378
     13 C          60.5484   90.2165    5.8094 C.3     1  UNL1        0.0437
     14 C          59.4304   91.7120    4.8025 C.3     1  UNL1        0.0437
     15 C          60.5895   88.6134   10.9176 C.3     1  UNL1        0.0600
     16 C          61.4738   87.4913   11.3748 C.ar    1  UNL1        0.0371
     17 C          61.3139   86.1220   10.7839 C.ar    1  UNL1        0.1385
     18 F          60.6675   85.8458   10.0951 F       1  UNL1       -0.2044
     19 C          62.1982   84.9999   11.2411 C.ar    1  UNL1        0.0318
     20 C          63.2423   85.2473   12.2893 C.ar    1  UNL1        0.0342
     21 C          63.4021   86.6166   12.8802 C.ar    1  UNL1        0.1672
     22 F          64.4462   86.8640   13.9284 F       1  UNL1       -0.2018
     23 C          62.5179   87.7387   12.4230 C.ar    1  UNL1        0.1656
     24 F          62.6777   89.1081   13.0139 F       1  UNL1       -0.2021
     25 C          64.1675   91.9689   10.1243 C.3     1  UNL1        0.1543
     26 C          64.9252   92.1117   11.4109 C.ar    1  UNL1        0.1417
     27 N          64.3720   91.8969   12.7885 N.ar    1  UNL1       -0.2276
     28 C          65.4741   92.1468   13.7749 C.ar    1  UNL1        0.1167
     29 C          65.5131   92.0859   15.2731 C.ar    1  UNL1        0.0238
     30 C          66.7866   92.3941   16.0033 C.ar    1  UNL1        0.0223
     31 C          68.0210   92.7634   15.2353 C.ar    1  UNL1        0.1006
     32 N          67.9820   92.8244   13.7371 N.ar    1  UNL1       -0.2252
     33 C          66.7085   92.5161   13.0069 C.ar    1  UNL1        0.1626
     34 N          66.3693   92.4944   11.5459 N.ar    1  UNL1       -0.2990
     35 C          67.3092   92.8014   10.4179 C.3     1  UNL1        0.0898
     36 C          68.4266   92.6393    9.4304 C.3     1  UNL1        0.0273
     37 C          68.1469   91.5571   10.4307 C.3     1  UNL1        0.0273
     38 C          66.7980   94.1523   10.0133 C.ar    1  UNL1       -0.0037
     39 C          66.1421   95.0408   11.0283 C.ar    1  UNL1       -0.0025
     40 C          65.6309   96.3918   10.6237 C.ar    1  UNL1       -0.0003
     41 C          65.7757   96.8541    9.2041 C.ar    1  UNL1       -0.0000
     42 C          66.4316   95.9656    8.1891 C.ar    1  UNL1       -0.0003
     43 C          66.9428   94.6147    8.5937 C.ar    1  UNL1       -0.0025
@<TRIPOS>BOND
     1    11    12    1
     2    12    13    1
     3    12    14    1
     4    12    10    1
     5    10     6    1
     6     6     7    2
     7     6     8   am
     8     8     5    1
     9     5    15    1
    10    15    16    1
    11    16    17   ar
    12    17    18    1
    13    17    19   ar
    14    19    20   ar
    15    20    21   ar
    16    21    22    1
    17    21    23   ar
    18    23    24    1
    19     5     1    1
    20     1     2    2
    21     1     3   am
    22     3    25    1
    23    25    26    1
    24    26    27   ar
    25    27    28   ar
    26    28    29   ar
    27    29    30   ar
    28    30    31   ar
    29    31    32   ar
    30    32    33   ar
    31    33    34   ar
    32    34    35    1
    33    35    38    1
    34    38    39   ar
    35    39    40   ar
    36    40    41   ar
    37    41    42   ar
    38    42    43   ar
    39    35    36    1
    40    36    37    1
    41    23    16   ar
    42    34    26   ar
    43    37    35    1
    44    33    28   ar
    45    43    38   ar
    46     8     9    1
    47     3     4    1
@<TRIPOS>MOLECULE
*****
 43 47 0 0 0
SMALL
GASTEIGER

@<TRIPOS>ATOM
      1 C          64.2435   91.6341   11.1387 C.2     1  UNL1        0.2411
      2 O          64.0360   91.4734   10.1903 O.2     1  UNL1       -0.2733
      3 N          63.4554   90.7588   12.0676 N.am    1  UNL1       -0.2966
      4 H          63.5823   90.8340   13.0410 H       1  UNL1        0.1499
      5 C          65.2249   92.6240   11.6931 C.3     1  UNL1        0.1556
      6 C          66.1291   91.8171   13.9912 C.2     1  UNL1        0.4017
      7 O          64.7558   91.9526   14.5791 O.2     1  UNL1       -0.2264
      8 N          66.3636   92.1528   12.5481 N.am    1  UNL1       -0.2637
      9 H          67.2650   92.0638   12.1622 H       1  UNL1        0.1532
     10 O          67.2678   91.3459   14.8463 O.3     1  UNL1       -0.4419
     11 C          69.2416   91.9642   14.3756 C.3     1  UNL1        0.0437
     12 C          68.2341   92.3383   15.4219 C.3     1  UNL1        0.1378
     13 C          67.2265   92.7123   16.4683 C.3     1  UNL1        0.0437
     14 C          69.2004   93.3307   15.9976 C.3     1  UNL1        0.0437
     15 C          65.0674   94.0851   11.3922 C.3     1  UNL1        0.0600
     16 C          65.9059   94.7259   10.3262 C.ar    1  UNL1        0.0371
     17 C          65.8369   96.2083   10.1077 C.ar    1  UNL1        0.1385
     18 F          65.2815   96.8544   10.6003 F       1  UNL1       -0.2044
     19 C          66.6753   96.8491    9.0417 C.ar    1  UNL1        0.0318
     20 C          67.5828   96.0075    8.1942 C.ar    1  UNL1        0.0342
     21 C          67.6518   94.5251    8.4127 C.ar    1  UNL1        0.1672
     22 F          68.5592   93.6836    7.5652 F       1  UNL1       -0.2018
     23 C          66.8134   93.8844    9.4787 C.ar    1  UNL1        0.1656
     24 F          66.8824   92.4019    9.6972 F       1  UNL1       -0.2021
     25 C          62.4741   89.7690   11.5133 C.3     1  UNL1        0.1543
     26 C          62.6241   88.3094   11.8249 C.ar    1  UNL1        0.1417
     27 N          63.5793   87.7129   12.8157 N.ar    1  UNL1       -0.2276
     28 C          63.3907   86.2248   12.8035 C.ar    1  UNL1        0.1167
     29 C          64.0564   85.1224   13.5724 C.ar    1  UNL1        0.0238
     30 C          63.6503   83.6968   13.3430 C.ar    1  UNL1        0.0223
     31 C          62.5785   83.3736   12.3446 C.ar    1  UNL1        0.1006
     32 N          61.9128   84.4760   11.5756 N.ar    1  UNL1       -0.2252
     33 C          62.3189   85.9016   11.8051 C.ar    1  UNL1        0.1626
     34 N          61.8451   87.1900   11.2003 N.ar    1  UNL1       -0.2990
     35 C          60.7794   87.3336   10.1545 C.3     1  UNL1        0.0898
     36 C          59.5092   87.7711    9.4872 C.3     1  UNL1        0.0273
     37 C          59.8204   88.2295   10.8811 C.3     1  UNL1        0.0273
     38 C          61.3682   86.4877    9.0647 C.ar    1  UNL1       -0.0037
     39 C          60.4830   85.9192    7.9956 C.ar    1  UNL1       -0.0025
     40 C          61.0717   85.0732    6.9056 C.ar    1  UNL1       -0.0003
     41 C          62.5458   84.7959    6.8850 C.ar    1  UNL1       -0.0000
     42 C          63.4310   85.3645    7.9542 C.ar    1  UNL1       -0.0003
     43 C          62.8422   86.2104    9.0440 C.ar    1  UNL1       -0.0025
@<TRIPOS>BOND
     1    11    12    1
     2    12    13    1
     3    12    14    1
     4    12    10    1
     5    10     6    1
     6     6     7    2
     7     6     8   am
     8     8     5    1
     9     5    15    1
    10    15    16    1
    11    16    17   ar
    12    17    18    1
    13    17    19   ar
    14    19    20   ar
    15    20    21   ar
    16    21    22    1
    17    21    23   ar
    18    23    24    1
    19     5     1    1
    20     1     2    2
    21     1     3   am
    22     3    25    1
    23    25    26    1
    24    26    27   ar
    25    27    28   ar
    26    28    29   ar
    27    29    30   ar
    28    30    31   ar
    29    31    32   ar
    30    32    33   ar
    31    33    34   ar
    32    34    35    1
    33    35    38    1
    34    38    39   ar
    35    39    40   ar
    36    40    41   ar
    37    41    42   ar
    38    42    43   ar
    39    35    36    1
    40    36    37    1
    41    23    16   ar
    42    34    26   ar
    43    37    35    1
    44    33    28   ar
    45    43    38   ar
    46     8     9    1
    47     3     4    1
@<TRIPOS>MOLECULE
*****
 43 47 0 0 0
SMALL
GASTEIGER

@<TRIPOS>ATOM
      1 C          62.7758   90.1355   12.2014 C.2     1  UNL1        0.2411
      2 O          62.6174   90.7609   12.9446 O.2     1  UNL1       -0.2733
      3 N          63.7275   90.6742   11.1748 N.am    1  UNL1       -0.2966
      4 H          63.9593   90.1325   10.3861 H       1  UNL1        0.1499
      5 C          62.1773   88.7712   12.0264 C.3     1  UNL1        0.1556
      6 C          63.6813   87.3970   13.6387 C.2     1  UNL1        0.4017
      7 O          63.5412   88.4666   14.6810 O.2     1  UNL1       -0.2264
      8 N          62.9993   87.5493   12.3114 N.am    1  UNL1       -0.2637
      9 H          63.0913   86.8473   11.6273 H       1  UNL1        0.1532
     10 O          64.5034   86.1752   13.9237 O.3     1  UNL1       -0.4419
     11 C          63.7846   84.3475   13.1220 C.3     1  UNL1        0.0437
     12 C          63.8528   84.9498   14.4940 C.3     1  UNL1        0.1378
     13 C          63.9211   85.5522   15.8660 C.3     1  UNL1        0.0437
     14 C          63.2023   83.7244   15.0643 C.3     1  UNL1        0.0437
     15 C          60.7567   88.6288   11.5664 C.3     1  UNL1        0.0600
     16 C          60.4627   88.1240   10.1848 C.ar    1  UNL1        0.0371
     17 C          60.6349   86.6685    9.8657 C.ar    1  UNL1        0.1385
     18 F          60.9327   85.9588   10.4791 F       1  UNL1       -0.2044
     19 C          60.3409   86.1637    8.4842 C.ar    1  UNL1        0.0318
     20 C          59.8748   87.1144    7.4217 C.ar    1  UNL1        0.0342
     21 C          59.7027   88.5699    7.7407 C.ar    1  UNL1        0.1672
     22 F          59.2366   89.5206    6.6782 F       1  UNL1       -0.2018
     23 C          59.9966   89.0747    9.1223 C.ar    1  UNL1        0.1656
     24 F          59.8245   90.5302    9.4414 F       1  UNL1       -0.2021
     25 C          64.3260   92.0384   11.3497 C.3     1  UNL1        0.1543
     26 C          65.2879   92.2973   12.4713 C.ar    1  UNL1        0.1417
     27 N          65.4596   91.4518   13.6983 N.ar    1  UNL1       -0.2276
     28 C          66.5248   92.0790   14.5481 C.ar    1  UNL1        0.1167
     29 C          67.1144   91.6866   15.8703 C.ar    1  UNL1        0.0238
     30 C          68.1907   92.5272   16.4906 C.ar    1  UNL1        0.0223
     31 C          68.6773   93.7604   15.7887 C.ar    1  UNL1        0.1006
     32 N          68.0876   94.1528   14.4665 N.ar    1  UNL1       -0.2252
     33 C          67.0114   93.3121   13.8462 C.ar    1  UNL1        0.1626
     34 N          66.2469   93.4470   12.5627 N.ar    1  UNL1       -0.2990
     35 C          66.4125   94.5398   11.5486 C.3     1  UNL1        0.0898
     36 C          66.3095   95.8885   10.9003 C.3     1  UNL1        0.0273
     37 C          65.6967   95.6563   12.2495 C.3     1  UNL1        0.0273
     38 C          67.1857   93.8029   10.4955 C.ar    1  UNL1       -0.0037
     39 C          67.4531   94.4516    9.1698 C.ar    1  UNL1       -0.0025
     40 C          68.2264   93.7148    8.1165 C.ar    1  UNL1       -0.0003
     41 C          68.7322   92.3292    8.3892 C.ar    1  UNL1       -0.0000
     42 C          68.4648   91.6805    9.7150 C.ar    1  UNL1       -0.0003
     43 C          67.6916   92.4174   10.7682 C.ar    1  UNL1       -0.0025
@<TRIPOS>BOND
     1    11    12    1
     2    12    13    1
     3    12    14    1
     4    12    10    1
     5    10     6    1
     6     6     7    2
     7     6     8   am
     8     8     5    1
     9     5    15    1
    10    15    16    1
    11    16    17   ar
    12    17    18    1
    13    17    19   ar
    14    19    20   ar
    15    20    21   ar
    16    21    22    1
    17    21    23   ar
    18    23    24    1
    19     5     1    1
    20     1     2    2
    21     1     3   am
    22     3    25    1
    23    25    26    1
    24    26    27   ar
    25    27    28   ar
    26    28    29   ar
    27    29    30   ar
    28    30    31   ar
    29    31    32   ar
    30    32    33   ar
    31    33    34   ar
    32    34    35    1
    33    35    38    1
    34    38    39   ar
    35    39    40   ar
    36    40    41   ar
    37    41    42   ar
    38    42    43   ar
    39    35    36    1
    40    36    37    1
    41    23    16   ar
    42    34    26   ar
    43    37    35    1
    44    33    28   ar
    45    43    38   ar
    46     8     9    1
    47     3     4    1
@<TRIPOS>MOLECULE
*****
 43 47 0 0 0
SMALL
GASTEIGER

@<TRIPOS>ATOM
      1 C          62.4551   88.5740   12.4496 C.2     1  UNL1        0.2411
      2 O          61.9878   89.4344   12.5484 O.2     1  UNL1       -0.2733
      3 N          63.7574   88.5257   13.1924 N.am    1  UNL1       -0.2966
      4 H          64.3104   87.7118   13.1640 H       1  UNL1        0.1499
      5 C          61.9954   87.3819   11.6636 C.3     1  UNL1        0.1556
      6 C          63.0878   85.1276   12.3526 C.2     1  UNL1        0.4017
      7 O          62.2748   85.1188   13.6131 O.2     1  UNL1       -0.2264
      8 N          62.9481   86.2592   11.3778 N.am    1  UNL1       -0.2637
      9 H          63.4818   86.2649   10.5505 H       1  UNL1        0.1532
     10 O          64.0406   84.0048   12.0668 O.3     1  UNL1       -0.4419
     11 C          63.2297   82.1691   12.7542 C.3     1  UNL1        0.0437
     12 C          63.5463   82.7510   11.4084 C.3     1  UNL1        0.1378
     13 C          63.8628   83.3329   10.0626 C.3     1  UNL1        0.0437
     14 C          63.0519   81.4971   10.7500 C.3     1  UNL1        0.0437
     15 C          60.5830   87.3127   11.1634 C.3     1  UNL1        0.0600
     16 C          60.3044   87.3827    9.6911 C.ar    1  UNL1        0.0371
     17 C          60.4624   86.1585    8.8389 C.ar    1  UNL1        0.1385
     18 F          60.7411   85.2624    9.1353 F       1  UNL1       -0.2044
     19 C          60.1839   86.2285    7.3667 C.ar    1  UNL1        0.0318
     20 C          59.7474   87.5228    6.7467 C.ar    1  UNL1        0.0342
     21 C          59.5894   88.7470    7.5989 C.ar    1  UNL1        0.1672
     22 F          59.1529   90.0412    6.9789 F       1  UNL1       -0.2018
     23 C          59.8679   88.6769    9.0711 C.ar    1  UNL1        0.1656
     24 F          59.7100   89.9012    9.9234 F       1  UNL1       -0.2021
     25 C          64.2171   89.7177   13.9784 C.3     1  UNL1        0.1543
     26 C          64.6702   90.9571   13.2652 C.ar    1  UNL1        0.1417
     27 N          64.5372   91.2272   11.7957 N.ar    1  UNL1       -0.2276
     28 C          65.1206   92.5810   11.5186 C.ar    1  UNL1        0.1167
     29 C          65.2661   93.3710   10.2518 C.ar    1  UNL1        0.0238
     30 C          65.9053   94.7277   10.2833 C.ar    1  UNL1        0.0223
     31 C          66.3989   95.2943   11.5815 C.ar    1  UNL1        0.1006
     32 N          66.2533   94.5043   12.8482 N.ar    1  UNL1       -0.2252
     33 C          65.6142   93.1477   12.8168 C.ar    1  UNL1        0.1626
     34 N          65.3358   92.1440   13.8962 N.ar    1  UNL1       -0.2990
     35 C          65.6652   92.2999   15.3513 C.3     1  UNL1        0.0898
     36 C          65.4819   92.3695   16.8384 C.3     1  UNL1        0.0273
     37 C          64.3032   92.1054   15.9490 C.3     1  UNL1        0.0273
     38 C          67.1416   92.5486   15.2589 C.ar    1  UNL1       -0.0037
     39 C          67.7764   93.6155   16.1006 C.ar    1  UNL1       -0.0025
     40 C          69.2528   93.8642   16.0083 C.ar    1  UNL1       -0.0003
     41 C          70.0942   93.0459   15.0742 C.ar    1  UNL1       -0.0000
     42 C          69.4593   91.9790   14.2325 C.ar    1  UNL1       -0.0003
     43 C          67.9829   91.7303   14.3248 C.ar    1  UNL1       -0.0025
@<TRIPOS>BOND
     1    11    12    1
     2    12    13    1
     3    12    14    1
     4    12    10    1
     5    10     6    1
     6     6     7    2
     7     6     8   am
     8     8     5    1
     9     5    15    1
    10    15    16    1
    11    16    17   ar
    12    17    18    1
    13    17    19   ar
    14    19    20   ar
    15    20    21   ar
    16    21    22    1
    17    21    23   ar
    18    23    24    1
    19     5     1    1
    20     1     2    2
    21     1     3   am
    22     3    25    1
    23    25    26    1
    24    26    27   ar
    25    27    28   ar
    26    28    29   ar
    27    29    30   ar
    28    30    31   ar
    29    31    32   ar
    30    32    33   ar
    31    33    34   ar
    32    34    35    1
    33    35    38    1
    34    38    39   ar
    35    39    40   ar
    36    40    41   ar
    37    41    42   ar
    38    42    43   ar
    39    35    36    1
    40    36    37    1
    41    23    16   ar
    42    34    26   ar
    43    37    35    1
    44    33    28   ar
    45    43    38   ar
    46     8     9    1
    47     3     4    1
@<TRIPOS>MOLECULE
*****
 43 47 0 0 0
SMALL
GASTEIGER

@<TRIPOS>ATOM
      1 C          63.3663   84.5272   12.2379 C.2     1  UNL1        0.2411
      2 O          63.7550   84.9125   11.4200 O.2     1  UNL1       -0.2733
      3 N          62.0095   85.0805   12.5587 N.am    1  UNL1       -0.2966
      4 H          61.5256   84.7660   13.3564 H       1  UNL1        0.1499
      5 C          63.9860   83.4948   13.1325 C.3     1  UNL1        0.1556
      6 C          62.8027   81.2284   12.6705 C.2     1  UNL1        0.4017
      7 O          61.4924   81.8273   13.0881 O.2     1  UNL1       -0.2264
      8 N          64.0495   82.0622   12.6927 N.am    1  UNL1       -0.2637
      9 H          64.9095   81.6691   12.4186 H       1  UNL1        0.1532
     10 O          62.8663   79.7958   12.2307 O.3     1  UNL1       -0.4419
     11 C          63.1047   80.8944   10.4318 C.3     1  UNL1        0.0437
     12 C          62.8365   79.4578   10.7696 C.3     1  UNL1        0.1378
     13 C          62.5683   78.0212   11.1074 C.3     1  UNL1        0.0437
     14 C          62.8067   79.1198    9.3084 C.3     1  UNL1        0.0437
     15 C          64.5420   83.8951   14.4668 C.3     1  UNL1        0.0600
     16 C          63.8017   84.8794   15.3232 C.ar    1  UNL1        0.0371
     17 C          62.6045   84.4366   16.1109 C.ar    1  UNL1        0.1385
     18 F          62.2175   83.5323   16.1422 F       1  UNL1       -0.2044
     19 C          61.8643   85.4208   16.9672 C.ar    1  UNL1        0.0318
     20 C          62.3213   86.8479   17.0358 C.ar    1  UNL1        0.0342
     21 C          63.5185   87.2907   16.2480 C.ar    1  UNL1        0.1672
     22 F          63.9754   88.7177   16.3166 F       1  UNL1       -0.2018
     23 C          64.2587   86.3064   15.3917 C.ar    1  UNL1        0.1656
     24 F          65.4560   86.7492   14.6039 F       1  UNL1       -0.2021
     25 C          61.3898   86.1129   11.6642 C.3     1  UNL1        0.1543
     26 C          62.0166   87.4698   11.5383 C.ar    1  UNL1        0.1417
     27 N          63.0283   88.0638   12.4730 N.ar    1  UNL1       -0.2276
     28 C          63.3788   89.4321   11.9680 C.ar    1  UNL1        0.1167
     29 C          64.3192   90.4814   12.4824 C.ar    1  UNL1        0.0238
     30 C          64.4645   91.7823   11.7499 C.ar    1  UNL1        0.0223
     31 C          63.6694   92.0339   10.5031 C.ar    1  UNL1        0.1006
     32 N          62.7290   90.9846    9.9888 N.ar    1  UNL1       -0.2252
     33 C          62.5837   89.6837   10.7212 C.ar    1  UNL1        0.1626
     34 N          61.7419   88.4709   10.4557 N.ar    1  UNL1       -0.2990
     35 C          60.7920   88.2910    9.3088 C.3     1  UNL1        0.0898
     36 C          59.6327   88.5312    8.3877 C.3     1  UNL1        0.0273
     37 C          59.8591   89.4383    9.5606 C.3     1  UNL1        0.0273
     38 C          61.3949   87.0811    8.6586 C.ar    1  UNL1       -0.0037
     39 C          62.8339   86.7365    8.9042 C.ar    1  UNL1       -0.0025
     40 C          63.4369   85.5266    8.2539 C.ar    1  UNL1       -0.0003
     41 C          62.6008   84.6615    7.3582 C.ar    1  UNL1       -0.0000
     42 C          61.1617   85.0062    7.1126 C.ar    1  UNL1       -0.0003
     43 C          60.5587   86.2160    7.7628 C.ar    1  UNL1       -0.0025
@<TRIPOS>BOND
     1    11    12    1
     2    12    13    1
     3    12    14    1
     4    12    10    1
     5    10     6    1
     6     6     7    2
     7     6     8   am
     8     8     5    1
     9     5    15    1
    10    15    16    1
    11    16    17   ar
    12    17    18    1
    13    17    19   ar
    14    19    20   ar
    15    20    21   ar
    16    21    22    1
    17    21    23   ar
    18    23    24    1
    19     5     1    1
    20     1     2    2
    21     1     3   am
    22     3    25    1
    23    25    26    1
    24    26    27   ar
    25    27    28   ar
    26    28    29   ar
    27    29    30   ar
    28    30    31   ar
    29    31    32   ar
    30    32    33   ar
    31    33    34   ar
    32    34    35    1
    33    35    38    1
    34    38    39   ar
    35    39    40   ar
    36    40    41   ar
    37    41    42   ar
    38    42    43   ar
    39    35    36    1
    40    36    37    1
    41    23    16   ar
    42    34    26   ar
    43    37    35    1
    44    33    28   ar
    45    43    38   ar
    46     8     9    1
    47     3     4    1
