@<TRIPOS>MOLECULE
*****
 26 29 0 0 0
SMALL
GASTEIGER

@<TRIPOS>ATOM
      1 C          64.0624   89.7609   13.7960 C.ar    1  UNL1        0.1385
      2 C          63.3674   89.4696   12.4990 C.ar    1  UNL1        0.0384
      3 C          63.0593   88.0527   12.1151 C.ar    1  UNL1        0.0203
      4 C          63.4461   86.9272   13.0281 C.ar    1  UNL1        0.0602
      5 C          64.1411   87.2185   14.3250 C.ar    1  UNL1        0.0204
      6 C          64.4492   88.6354   14.7090 C.ar    1  UNL1        0.0384
      7 C          64.3990   85.9125   15.0162 C.ar    1  UNL1        0.0233
      8 C          63.8635   84.8140   14.1465 C.ar    1  UNL1        0.1140
      9 N          63.2746   85.4410   12.9177 N.ar    1  UNL1       -0.3238
     10 C          62.6582   84.5779   11.8571 C.3     1  UNL1        0.1052
     11 C          62.0693   85.2049   10.6284 C.3     1  UNL1        0.0263
     12 C          62.6307   83.0876   12.0253 C.3     1  UNL1        0.1122
     13 N          63.2197   82.4605   13.2541 N.am    1  UNL1       -0.2978
     14 C          63.8361   83.3237   14.3147 C.2     1  UNL1        0.2618
     15 O          64.4250   82.6966   15.5435 O.2     1  UNL1       -0.2686
     16 H          63.2016   81.4824   13.3644 H       1  UNL1        0.1498
     17 O          64.3706   91.1778   14.1800 O.3     1  UNL1       -0.4791
     18 N          66.3154   93.9420   11.2090 N.3     1  UNL1       -0.2737
     19 C          66.6147   94.0830   12.6720 C.3     1  UNL1        0.0758
     20 C          65.9664   93.1616   13.6624 C.3     1  UNL1        0.0609
     21 C          65.0188   92.0992   13.1897 C.3     1  UNL1        0.1687
     22 C          64.7195   91.9583   11.7266 C.3     1  UNL1        0.0609
     23 C          65.3678   92.8797   10.7363 C.3     1  UNL1        0.0758
     24 C          66.7060   96.3395   10.2874 C.3     1  UNL1        0.0173
     25 C          66.9637   94.8634   10.2187 C.3     1  UNL1        0.0576
     26 C          67.8696   94.3087    9.1596 C.3     1  UNL1        0.0173
@<TRIPOS>BOND
     1    24    25    1
     2    25    26    1
     3    25    18    1
     4    18    19    1
     5    19    20    1
     6    20    21    1
     7    21    17    1
     8    17     1    1
     9     1     2   ar
    10     2     3   ar
    11     3     4   ar
    12     4     5   ar
    13     5     6   ar
    14     5     7   ar
    15     7     8   ar
    16     8     9   ar
    17     9    10    1
    18    10    11    1
    19    10    12    1
    20    12    13    1
    21    13    14   am
    22    14    15    2
    23    21    22    1
    24    22    23    1
    25    23    18    1
    26     6     1   ar
    27    14     8    1
    28     9     4   ar
    29    13    16    1
@<TRIPOS>MOLECULE
*****
 26 29 0 0 0
SMALL
GASTEIGER

@<TRIPOS>ATOM
      1 C          62.4805   89.0263   11.1099 C.ar    1  UNL1        0.1385
      2 C          62.7939   90.0938   10.1038 C.ar    1  UNL1        0.0384
      3 C          63.6647   91.2533   10.4873 C.ar    1  UNL1        0.0203
      4 C          64.2221   91.3453   11.8769 C.ar    1  UNL1        0.0602
      5 C          63.9087   90.2778   12.8829 C.ar    1  UNL1        0.0204
      6 C          63.0379   89.1183   12.4994 C.ar    1  UNL1        0.0384
      7 C          64.5962   90.6351   14.1673 C.ar    1  UNL1        0.0233
      8 C          65.3344   91.9235   13.9551 C.ar    1  UNL1        0.1140
      9 N          65.1033   92.3625   12.5395 N.ar    1  UNL1       -0.3238
     10 C          65.7250   93.6315   12.0368 C.3     1  UNL1        0.1052
     11 C          65.4938   94.0705   10.6213 C.3     1  UNL1        0.0263
     12 C          66.5779   94.4618   12.9497 C.3     1  UNL1        0.1122
     13 N          66.8090   94.0228   14.3653 N.am    1  UNL1       -0.2978
     14 C          66.1873   92.7537   14.8680 C.2     1  UNL1        0.2618
     15 O          66.4184   92.3147   16.2837 O.2     1  UNL1       -0.2686
     16 H          67.3688   94.5677   14.9644 H       1  UNL1        0.1498
     17 O          61.6096   87.8667   10.7264 O.3     1  UNL1       -0.4791
     18 N          63.1083   83.6564   11.2527 N.3     1  UNL1       -0.2737
     19 C          63.0827   84.2782    9.8879 C.3     1  UNL1        0.0758
     20 C          62.5831   85.6817    9.7125 C.3     1  UNL1        0.0609
     21 C          62.1091   86.4633   10.9018 C.3     1  UNL1        0.1687
     22 C          62.1348   85.8414   12.2666 C.3     1  UNL1        0.0609
     23 C          62.6344   84.4380   12.4420 C.3     1  UNL1        0.0758
     24 C          63.3375   81.2230   10.3717 C.3     1  UNL1        0.0173
     25 C          63.6079   82.2530   11.4281 C.3     1  UNL1        0.0576
     26 C          64.3780   81.8795   12.6600 C.3     1  UNL1        0.0173
@<TRIPOS>BOND
     1    24    25    1
     2    25    26    1
     3    25    18    1
     4    18    19    1
     5    19    20    1
     6    20    21    1
     7    21    17    1
     8    17     1    1
     9     1     2   ar
    10     2     3   ar
    11     3     4   ar
    12     4     5   ar
    13     5     6   ar
    14     5     7   ar
    15     7     8   ar
    16     8     9   ar
    17     9    10    1
    18    10    11    1
    19    10    12    1
    20    12    13    1
    21    13    14   am
    22    14    15    2
    23    21    22    1
    24    22    23    1
    25    23    18    1
    26     6     1   ar
    27    14     8    1
    28     9     4   ar
    29    13    16    1
@<TRIPOS>MOLECULE
*****
 26 29 0 0 0
SMALL
GASTEIGER

@<TRIPOS>ATOM
      1 C          62.6074   88.7856   11.4311 C.ar    1  UNL1        0.1385
      2 C          63.0967   88.7402   12.8483 C.ar    1  UNL1        0.0384
      3 C          63.9593   89.8463   13.3797 C.ar    1  UNL1        0.0203
      4 C          64.3326   90.9978   12.4938 C.ar    1  UNL1        0.0602
      5 C          63.8433   91.0432   11.0766 C.ar    1  UNL1        0.0204
      6 C          62.9807   89.9371   10.5453 C.ar    1  UNL1        0.0384
      7 C          64.3708   92.2968   10.4441 C.ar    1  UNL1        0.0233
      8 C          65.1861   93.0263   11.4704 C.ar    1  UNL1        0.1140
      9 N          65.1625   92.2235   12.7372 N.ar    1  UNL1       -0.3238
     10 C          65.8997   92.7122   13.9486 C.3     1  UNL1        0.1052
     11 C          65.8761   91.9093   15.2154 C.3     1  UNL1        0.0263
     12 C          66.6605   94.0037   13.8932 C.3     1  UNL1        0.1122
     13 N          66.6841   94.8065   12.6264 N.am    1  UNL1       -0.2978
     14 C          65.9469   94.3178   11.4149 C.2     1  UNL1        0.2618
     15 O          65.9704   95.1207   10.1480 O.2     1  UNL1       -0.2686
     16 H          67.1834   95.6542   12.5900 H       1  UNL1        0.1498
     17 O          61.7447   87.6795   10.8997 O.3     1  UNL1       -0.4791
     18 N          63.0293   83.3939   11.3836 N.3     1  UNL1       -0.2737
     19 C          62.5987   84.1876   12.5813 C.3     1  UNL1        0.0758
     20 C          62.1705   85.6162   12.4200 C.3     1  UNL1        0.0609
     21 C          62.1729   86.2510   11.0610 C.3     1  UNL1        0.1687
     22 C          62.6036   85.4572    9.8632 C.3     1  UNL1        0.0609
     23 C          63.0317   84.0288   10.0245 C.3     1  UNL1        0.0758
     24 C          63.3810   81.0235   10.3801 C.3     1  UNL1        0.0173
     25 C          63.4574   81.9655   11.5449 C.3     1  UNL1        0.0576
     26 C          63.9621   81.4789   12.8710 C.3     1  UNL1        0.0173
@<TRIPOS>BOND
     1    24    25    1
     2    25    26    1
     3    25    18    1
     4    18    19    1
     5    19    20    1
     6    20    21    1
     7    21    17    1
     8    17     1    1
     9     1     2   ar
    10     2     3   ar
    11     3     4   ar
    12     4     5   ar
    13     5     6   ar
    14     5     7   ar
    15     7     8   ar
    16     8     9   ar
    17     9    10    1
    18    10    11    1
    19    10    12    1
    20    12    13    1
    21    13    14   am
    22    14    15    2
    23    21    22    1
    24    22    23    1
    25    23    18    1
    26     6     1   ar
    27    14     8    1
    28     9     4   ar
    29    13    16    1
@<TRIPOS>MOLECULE
*****
 26 29 0 0 0
SMALL
GASTEIGER

@<TRIPOS>ATOM
      1 C          62.1057   89.0927   11.4490 C.ar    1  UNL1        0.1385
      2 C          62.4341   90.0831   10.3714 C.ar    1  UNL1        0.0384
      3 C          63.4088   91.1905   10.6424 C.ar    1  UNL1        0.0203
      4 C          64.0551   91.3075   11.9910 C.ar    1  UNL1        0.0602
      5 C          63.7267   90.3172   13.0686 C.ar    1  UNL1        0.0204
      6 C          62.7519   89.2098   12.7976 C.ar    1  UNL1        0.0384
      7 C          64.5152   90.6835   14.2908 C.ar    1  UNL1        0.0233
      8 C          65.3311   91.9003   13.9686 C.ar    1  UNL1        0.1140
      9 N          65.0467   92.2860   12.5472 N.ar    1  UNL1       -0.3238
     10 C          65.7274   93.4783   11.9431 C.3     1  UNL1        0.1052
     11 C          65.4431   93.8640   10.5217 C.3     1  UNL1        0.0263
     12 C          66.6925   94.2849   12.7603 C.3     1  UNL1        0.1122
     13 N          66.9769   93.8992   14.1817 N.am    1  UNL1       -0.2978
     14 C          66.2962   92.7069   14.7859 C.2     1  UNL1        0.2618
     15 O          66.5806   92.3212   16.2073 O.2     1  UNL1       -0.2686
     16 H          67.6103   94.4287   14.7181 H       1  UNL1        0.1498
     17 O          61.1309   87.9852   11.1781 O.3     1  UNL1       -0.4791
     18 N          61.6013   85.4210    7.5102 N.3     1  UNL1       -0.2737
     19 C          60.3074   86.1358    7.7646 C.3     1  UNL1        0.0758
     20 C          60.1505   86.9905    8.9873 C.3     1  UNL1        0.0609
     21 C          61.2877   87.1305    9.9555 C.3     1  UNL1        0.1687
     22 C          62.5817   86.4157    9.7009 C.3     1  UNL1        0.0609
     23 C          62.7384   85.5609    8.4783 C.3     1  UNL1        0.0758
     24 C          60.5988   83.7591    5.7830 C.3     1  UNL1        0.0173
     25 C          61.7581   84.5663    6.2876 C.3     1  UNL1        0.0576
     26 C          63.0742   84.5187    5.5694 C.3     1  UNL1        0.0173
@<TRIPOS>BOND
     1    24    25    1
     2    25    26    1
     3    25    18    1
     4    18    19    1
     5    19    20    1
     6    20    21    1
     7    21    17    1
     8    17     1    1
     9     1     2   ar
    10     2     3   ar
    11     3     4   ar
    12     4     5   ar
    13     5     6   ar
    14     5     7   ar
    15     7     8   ar
    16     8     9   ar
    17     9    10    1
    18    10    11    1
    19    10    12    1
    20    12    13    1
    21    13    14   am
    22    14    15    2
    23    21    22    1
    24    22    23    1
    25    23    18    1
    26     6     1   ar
    27    14     8    1
    28     9     4   ar
    29    13    16    1
@<TRIPOS>MOLECULE
*****
 26 29 0 0 0
SMALL
GASTEIGER

@<TRIPOS>ATOM
      1 C          62.3745   87.8398   10.9008 C.ar    1  UNL1        0.1385
      2 C          62.2124   86.7937    9.8381 C.ar    1  UNL1        0.0384
      3 C          62.4540   85.3497   10.1642 C.ar    1  UNL1        0.0203
      4 C          62.8575   84.9517   11.5530 C.ar    1  UNL1        0.0602
      5 C          63.0195   85.9979   12.6157 C.ar    1  UNL1        0.0204
      6 C          62.7780   87.4419   12.2896 C.ar    1  UNL1        0.0384
      7 C          63.4238   85.3097   13.8857 C.ar    1  UNL1        0.0233
      8 C          63.5116   83.8382   13.6080 C.ar    1  UNL1        0.1140
      9 N          63.1616   83.6170   12.1663 N.ar    1  UNL1       -0.3238
     10 C          63.1651   82.2288   11.5982 C.3     1  UNL1        0.1052
     11 C          62.8151   82.0075   10.1565 C.3     1  UNL1        0.0263
     12 C          63.5185   81.0618   12.4718 C.3     1  UNL1        0.1122
     13 N          63.8685   81.2831   13.9135 N.am    1  UNL1       -0.2978
     14 C          63.8650   82.6713   14.4816 C.2     1  UNL1        0.2618
     15 O          64.2150   82.8926   15.9234 O.2     1  UNL1       -0.2686
     16 H          64.1005   80.5171   14.4869 H       1  UNL1        0.1498
     17 O          62.1330   89.2839   10.5746 O.3     1  UNL1       -0.4791
     18 N          64.9878   92.4325   12.0532 N.3     1  UNL1       -0.2737
     19 C          64.4399   91.4106   13.0048 C.3     1  UNL1        0.0758
     20 C          63.4882   90.3610   12.5119 C.3     1  UNL1        0.0609
     21 C          63.0846   90.3334   11.0675 C.3     1  UNL1        0.1687
     22 C          63.6326   91.3554   10.1160 C.3     1  UNL1        0.0609
     23 C          64.5842   92.4049   10.6088 C.3     1  UNL1        0.0758
     24 C          66.2945   94.6446   11.6674 C.3     1  UNL1        0.0173
     25 C          65.9394   93.4819   12.5461 C.3     1  UNL1        0.0576
     26 C          66.5361   93.3688   13.9177 C.3     1  UNL1        0.0173
@<TRIPOS>BOND
     1    24    25    1
     2    25    26    1
     3    25    18    1
     4    18    19    1
     5    19    20    1
     6    20    21    1
     7    21    17    1
     8    17     1    1
     9     1     2   ar
    10     2     3   ar
    11     3     4   ar
    12     4     5   ar
    13     5     6   ar
    14     5     7   ar
    15     7     8   ar
    16     8     9   ar
    17     9    10    1
    18    10    11    1
    19    10    12    1
    20    12    13    1
    21    13    14   am
    22    14    15    2
    23    21    22    1
    24    22    23    1
    25    23    18    1
    26     6     1   ar
    27    14     8    1
    28     9     4   ar
    29    13    16    1
@<TRIPOS>MOLECULE
*****
 26 29 0 0 0
SMALL
GASTEIGER

@<TRIPOS>ATOM
      1 C          63.5876   89.8507   13.1874 C.ar    1  UNL1        0.1385
      2 C          62.9367   89.4221   11.9058 C.ar    1  UNL1        0.0384
      3 C          62.7485   87.9633   11.6115 C.ar    1  UNL1        0.0203
      4 C          63.2112   86.9332   12.5988 C.ar    1  UNL1        0.0602
      5 C          63.8621   87.3619   13.8804 C.ar    1  UNL1        0.0204
      6 C          64.0503   88.8206   14.1747 C.ar    1  UNL1        0.0384
      7 C          64.2139   86.1277   14.6570 C.ar    1  UNL1        0.0233
      8 C          63.7805   84.9363   13.8553 C.ar    1  UNL1        0.1140
      9 N          63.1607   85.4341   12.5832 N.ar    1  UNL1       -0.3238
     10 C          62.6306   84.4581   11.5752 C.3     1  UNL1        0.1052
     11 C          62.0109   84.9559   10.3032 C.3     1  UNL1        0.0263
     12 C          62.7202   82.9842   11.8391 C.3     1  UNL1        0.1122
     13 N          63.3399   82.4864   13.1111 N.am    1  UNL1       -0.2978
     14 C          63.8700   83.4625   14.1193 C.2     1  UNL1        0.2618
     15 O          64.4898   82.9646   15.3914 O.2     1  UNL1       -0.2686
     16 H          63.3986   81.5191   13.2844 H       1  UNL1        0.1498
     17 O          63.7758   91.3095   13.4818 O.3     1  UNL1       -0.4791
     18 N          67.6095   92.7526   15.3445 N.3     1  UNL1       -0.2737
     19 C          67.5551   92.4552   13.8753 C.3     1  UNL1        0.0758
     20 C          66.2771   91.9741   13.2544 C.3     1  UNL1        0.0609
     21 C          65.0537   91.7905   14.1026 C.3     1  UNL1        0.1687
     22 C          65.1083   92.0880   15.5719 C.3     1  UNL1        0.0609
     23 C          66.3861   92.5690   16.1928 C.3     1  UNL1        0.0758
     24 C          69.1925   94.7016   16.0121 C.3     1  UNL1        0.0173
     25 C          68.8874   93.2336   15.9654 C.3     1  UNL1        0.0576
     26 C          69.8603   92.2468   16.5396 C.3     1  UNL1        0.0173
@<TRIPOS>BOND
     1    24    25    1
     2    25    26    1
     3    25    18    1
     4    18    19    1
     5    19    20    1
     6    20    21    1
     7    21    17    1
     8    17     1    1
     9     1     2   ar
    10     2     3   ar
    11     3     4   ar
    12     4     5   ar
    13     5     6   ar
    14     5     7   ar
    15     7     8   ar
    16     8     9   ar
    17     9    10    1
    18    10    11    1
    19    10    12    1
    20    12    13    1
    21    13    14   am
    22    14    15    2
    23    21    22    1
    24    22    23    1
    25    23    18    1
    26     6     1   ar
    27    14     8    1
    28     9     4   ar
    29    13    16    1
@<TRIPOS>MOLECULE
*****
 26 29 0 0 0
SMALL
GASTEIGER

@<TRIPOS>ATOM
      1 C          62.7970   90.0647   13.1822 C.ar    1  UNL1        0.1385
      2 C          63.4504   88.7171   13.0999 C.ar    1  UNL1        0.0384
      3 C          63.0908   87.7759   11.9887 C.ar    1  UNL1        0.0203
      4 C          62.0777   88.1824   10.9599 C.ar    1  UNL1        0.0602
      5 C          61.4243   89.5300   11.0422 C.ar    1  UNL1        0.0204
      6 C          61.7839   90.4712   12.1534 C.ar    1  UNL1        0.0384
      7 C          60.4686   89.6528    9.8926 C.ar    1  UNL1        0.0233
      8 C          60.5314   88.3810    9.0997 C.ar    1  UNL1        0.1140
      9 N          61.5259   87.4722    9.7593 N.ar    1  UNL1       -0.3238
     10 C          61.8005   86.1156    9.1815 C.3     1  UNL1        0.1052
     11 C          62.7949   85.2067    9.8411 C.3     1  UNL1        0.0263
     12 C          61.0806   85.6676    7.9441 C.3     1  UNL1        0.1122
     13 N          60.0861   86.5764    7.2846 N.am    1  UNL1       -0.2978
     14 C          59.8115   87.9332    7.8624 C.2     1  UNL1        0.2618
     15 O          58.8170   88.8420    7.2027 O.2     1  UNL1       -0.2686
     16 H          59.6137   86.2824    6.4724 H       1  UNL1        0.1498
     17 O          63.1566   91.0060   14.2935 O.3     1  UNL1       -0.4791
     18 N          67.4081   92.4004   14.7737 N.3     1  UNL1       -0.2737
     19 C          66.4932   92.3603   15.9617 C.3     1  UNL1        0.0758
     20 C          65.0760   91.8955   15.8017 C.3     1  UNL1        0.0609
     21 C          64.5737   91.4708   14.4536 C.3     1  UNL1        0.1687
     22 C          65.4886   91.5110   13.2655 C.3     1  UNL1        0.0609
     23 C          66.9058   91.9758   13.4256 C.3     1  UNL1        0.0758
     24 C          69.1609   93.9097   15.9567 C.3     1  UNL1        0.0173
     25 C          68.8252   92.8652   14.9338 C.3     1  UNL1        0.0576
     26 C          69.9067   92.2855   14.0710 C.3     1  UNL1        0.0173
@<TRIPOS>BOND
     1    24    25    1
     2    25    26    1
     3    25    18    1
     4    18    19    1
     5    19    20    1
     6    20    21    1
     7    21    17    1
     8    17     1    1
     9     1     2   ar
    10     2     3   ar
    11     3     4   ar
    12     4     5   ar
    13     5     6   ar
    14     5     7   ar
    15     7     8   ar
    16     8     9   ar
    17     9    10    1
    18    10    11    1
    19    10    12    1
    20    12    13    1
    21    13    14   am
    22    14    15    2
    23    21    22    1
    24    22    23    1
    25    23    18    1
    26     6     1   ar
    27    14     8    1
    28     9     4   ar
    29    13    16    1
@<TRIPOS>MOLECULE
*****
 26 29 0 0 0
SMALL
GASTEIGER

@<TRIPOS>ATOM
      1 C          61.4894   89.5491   11.2508 C.ar    1  UNL1        0.1385
      2 C          61.6837   89.3990   12.7305 C.ar    1  UNL1        0.0384
      3 C          62.7866   90.1447   13.4215 C.ar    1  UNL1        0.0203
      4 C          63.6952   91.0404   12.6328 C.ar    1  UNL1        0.0602
      5 C          63.5009   91.1905   11.1530 C.ar    1  UNL1        0.0204
      6 C          62.3980   90.4448   10.4620 C.ar    1  UNL1        0.0384
      7 C          64.5454   92.1381   10.6421 C.ar    1  UNL1        0.0233
      8 C          65.3852   92.5737   11.8062 C.ar    1  UNL1        0.1140
      9 N          64.8598   91.8953   13.0365 N.ar    1  UNL1       -0.3238
     10 C          65.5097   92.1437   14.3653 C.3     1  UNL1        0.1052
     11 C          64.9842   91.4652   15.5956 C.3     1  UNL1        0.0263
     12 C          66.6850   93.0704   14.4639 C.3     1  UNL1        0.1122
     13 N          67.2104   93.7488   13.2336 N.am    1  UNL1       -0.2978
     14 C          66.5605   93.5005   11.9047 C.2     1  UNL1        0.2618
     15 O          67.0859   94.1790   10.6743 O.2     1  UNL1       -0.2686
     16 H          67.9818   94.3571   13.2983 H       1  UNL1        0.1498
     17 O          60.3864   88.8034   10.5597 O.3     1  UNL1       -0.4791
     18 N          61.3712   85.6916    7.4617 N.3     1  UNL1       -0.2737
     19 C          60.0457   86.3927    7.4256 C.3     1  UNL1        0.0758
     20 C          59.7174   87.4300    8.4582 C.3     1  UNL1        0.0609
     21 C          60.7147   87.7662    9.5270 C.3     1  UNL1        0.1687
     22 C          62.0403   87.0650    9.5632 C.3     1  UNL1        0.0609
     23 C          62.3686   86.0278    8.5306 C.3     1  UNL1        0.0758
     24 C          60.6251   83.7439    5.9127 C.3     1  UNL1        0.0173
     25 C          61.6995   84.6544    6.4291 C.3     1  UNL1        0.0576
     26 C          63.1022   84.5276    5.9129 C.3     1  UNL1        0.0173
@<TRIPOS>BOND
     1    24    25    1
     2    25    26    1
     3    25    18    1
     4    18    19    1
     5    19    20    1
     6    20    21    1
     7    21    17    1
     8    17     1    1
     9     1     2   ar
    10     2     3   ar
    11     3     4   ar
    12     4     5   ar
    13     5     6   ar
    14     5     7   ar
    15     7     8   ar
    16     8     9   ar
    17     9    10    1
    18    10    11    1
    19    10    12    1
    20    12    13    1
    21    13    14   am
    22    14    15    2
    23    21    22    1
    24    22    23    1
    25    23    18    1
    26     6     1   ar
    27    14     8    1
    28     9     4   ar
    29    13    16    1
@<TRIPOS>MOLECULE
*****
 26 29 0 0 0
SMALL
GASTEIGER

@<TRIPOS>ATOM
      1 C          46.0615   74.2584   19.2431 C.ar    1  UNL1        0.1385
      2 C          47.0163   74.9630   18.3255 C.ar    1  UNL1        0.0384
      3 C          47.1700   76.4530   18.4035 C.ar    1  UNL1        0.0203
      4 C          46.3688   77.2385   19.3991 C.ar    1  UNL1        0.0602
      5 C          45.4140   76.5340   20.3166 C.ar    1  UNL1        0.0204
      6 C          45.2603   75.0440   20.2386 C.ar    1  UNL1        0.0384
      7 C          44.7634   77.5658   21.1896 C.ar    1  UNL1        0.0233
      8 C          45.3162   78.9081   20.8116 C.ar    1  UNL1        0.1140
      9 N          46.3084   78.7058   19.7050 N.ar    1  UNL1       -0.3238
     10 C          47.0286   79.8838   19.1189 C.3     1  UNL1        0.1052
     11 C          48.0208   79.6815   18.0123 C.3     1  UNL1        0.0263
     12 C          46.7566   81.2640   19.6393 C.3     1  UNL1        0.1122
     13 N          45.7644   81.4663   20.7459 N.am    1  UNL1       -0.2978
     14 C          45.0441   80.2882   21.3321 C.2     1  UNL1        0.2618
     15 O          44.0519   80.4905   22.4388 O.2     1  UNL1       -0.2686
     16 H          45.5859   82.3722   21.0876 H       1  UNL1        0.1498
     17 O          45.9078   72.7683   19.1651 O.3     1  UNL1       -0.4791
     18 N          45.2135   70.7830   15.1869 N.3     1  UNL1       -0.2737
     19 C          44.4531   72.0244   15.5484 C.3     1  UNL1        0.0758
     20 C          44.6846   72.6862   16.8745 C.3     1  UNL1        0.0609
     21 C          45.6764   72.1066   17.8391 C.3     1  UNL1        0.1687
     22 C          46.4368   70.8651   17.4775 C.3     1  UNL1        0.0609
     23 C          46.2054   70.2034   16.1514 C.3     1  UNL1        0.0758
     24 C          46.0645   69.2901   13.2383 C.3     1  UNL1        0.0173
     25 C          44.9821   70.1213   13.8608 C.3     1  UNL1        0.0576
     26 C          43.6682   70.2907   13.1572 C.3     1  UNL1        0.0173
@<TRIPOS>BOND
     1    24    25    1
     2    25    26    1
     3    25    18    1
     4    18    19    1
     5    19    20    1
     6    20    21    1
     7    21    17    1
     8    17     1    1
     9     1     2   ar
    10     2     3   ar
    11     3     4   ar
    12     4     5   ar
    13     5     6   ar
    14     5     7   ar
    15     7     8   ar
    16     8     9   ar
    17     9    10    1
    18    10    11    1
    19    10    12    1
    20    12    13    1
    21    13    14   am
    22    14    15    2
    23    21    22    1
    24    22    23    1
    25    23    18    1
    26     6     1   ar
    27    14     8    1
    28     9     4   ar
    29    13    16    1
