@<TRIPOS>MOLECULE
*****
 28 31 0 0 0
SMALL
GASTEIGER

@<TRIPOS>ATOM
      1 C          64.9007   91.1388   14.6011 C.ar    1  UNL1        0.0880
      2 C          64.2139   91.5636   15.8652 C.ar    1  UNL1        0.1149
      3 N          63.4248   90.5669   16.6613 N.ar    1  UNL1       -0.2409
      4 C          63.3224   89.1455   16.1934 C.ar    1  UNL1        0.1009
      5 C          64.0091   88.7207   14.9293 C.ar    1  UNL1        0.0443
      6 C          64.7983   89.7174   14.1332 C.ar    1  UNL1        0.0213
      7 C          63.9067   87.2992   14.4614 C.ar    1  UNL1        0.1122
      8 N          63.4287   86.8470   13.1134 N.ar    1  UNL1       -0.2383
      9 C          63.4909   85.3487   13.0782 C.ar    1  UNL1        0.0879
     10 C          63.1440   84.3546   12.0098 C.ar    1  UNL1        0.0196
     11 C          63.3136   82.8867   12.2677 C.ar    1  UNL1        0.0016
     12 C          63.8300   82.4129   13.5939 C.ar    1  UNL1        0.0006
     13 C          64.1769   83.4070   14.6622 C.ar    1  UNL1        0.0080
     14 C          64.0074   84.8749   14.4044 C.ar    1  UNL1        0.0485
     15 S          64.2643   86.0804   15.2592 S.2     1  UNL1       -0.0664
     16 N          65.6898   92.1355   13.8049 N.pl3   1  UNL1       -0.1883
     17 S          66.9126   92.7702   14.3983 S.O2    1  UNL1        0.0572
     18 O          67.6267   91.4525   14.3360 O.2     1  UNL1       -0.1543
     19 O          66.1984   94.0878   14.4606 O.2     1  UNL1       -0.1543
     20 C          68.9324   92.6713   16.0294 C.3     1  UNL1        0.0292
     21 C          68.1353   93.4048   14.9918 C.3     1  UNL1        0.1727
     22 C          65.2563   92.4975   12.4153 C.3     1  UNL1        0.1434
     23 C          66.2680   92.9678   11.4126 C.ar    1  UNL1        0.0186
     24 C          67.1968   91.9834   10.7660 C.ar    1  UNL1        0.0006
     25 C          68.2084   92.4537    9.7633 C.ar    1  UNL1        0.0204
     26 C          68.2911   93.9085    9.4072 C.ar    1  UNL1        0.0989
     27 N          67.3623   94.8929   10.0537 N.ar    1  UNL1       -0.2426
     28 C          66.3507   94.4226   11.0564 C.ar    1  UNL1        0.0963
@<TRIPOS>BOND
     1    20    21    1
     2    21    17    1
     3    17    18    2
     4    17    19    2
     5    17    16    1
     6    16    22    1
     7    22    23    1
     8    23    24   ar
     9    24    25   ar
    10    25    26   ar
    11    26    27   ar
    12    27    28   ar
    13    16     1    1
    14     1     2   ar
    15     2     3   ar
    16     3     4   ar
    17     4     5   ar
    18     5     7    1
    19     7     8   ar
    20     8     9   ar
    21     9    10   ar
    22    10    11   ar
    23    11    12   ar
    24    12    13   ar
    25    13    14   ar
    26    14    15   ar
    27     5     6   ar
    28    28    23   ar
    29     6     1   ar
    30    15     7   ar
    31    14     9   ar
@<TRIPOS>MOLECULE
*****
 28 31 0 0 0
SMALL
GASTEIGER

@<TRIPOS>ATOM
      1 C          64.9879   91.7145   13.6699 C.ar    1  UNL1        0.0880
      2 C          64.6889   91.3842   15.1021 C.ar    1  UNL1        0.1149
      3 N          63.6357   90.3689   15.4335 N.ar    1  UNL1       -0.2409
      4 C          62.8815   89.6839   14.3325 C.ar    1  UNL1        0.1009
      5 C          63.1805   90.0142   12.9003 C.ar    1  UNL1        0.0443
      6 C          64.2338   91.0295   12.5689 C.ar    1  UNL1        0.0213
      7 C          62.4264   89.3293   11.7994 C.ar    1  UNL1        0.1122
      8 N          62.3734   87.8503   11.5545 N.ar    1  UNL1       -0.2383
      9 C          61.5070   87.6100   10.3538 C.ar    1  UNL1        0.0879
     10 C          61.0952   86.3516    9.6490 C.ar    1  UNL1        0.0196
     11 C          60.2008   86.4236    8.4470 C.ar    1  UNL1        0.0016
     12 C          59.7182   87.7540    7.9498 C.ar    1  UNL1        0.0006
     13 C          60.1301   89.0124    8.6546 C.ar    1  UNL1        0.0080
     14 C          61.0245   88.9404    9.8566 C.ar    1  UNL1        0.0485
     15 S          61.5927   90.0029   10.7500 S.2     1  UNL1       -0.0664
     16 N          66.0412   92.7299   13.3384 N.pl3   1  UNL1       -0.1883
     17 S          67.2965   92.8027   14.1564 S.O2    1  UNL1        0.0572
     18 O          67.6875   91.4359   13.6780 O.2     1  UNL1       -0.1543
     19 O          66.9054   94.1695   14.6348 O.2     1  UNL1       -0.1543
     20 C          68.5836   92.2859   16.3533 C.3     1  UNL1        0.0292
     21 C          68.5517   92.8755   14.9743 C.3     1  UNL1        0.1727
     22 C          65.8392   93.6723   12.1891 C.3     1  UNL1        0.1434
     23 C          66.7035   93.5622   10.9680 C.ar    1  UNL1        0.0186
     24 C          67.3026   92.2401   10.5900 C.ar    1  UNL1        0.0006
     25 C          68.1668   92.1300    9.3690 C.ar    1  UNL1        0.0204
     26 C          68.4319   93.3421    8.5260 C.ar    1  UNL1        0.0989
     27 N          67.8328   94.6642    8.9040 N.ar    1  UNL1       -0.2426
     28 C          66.9685   94.7742   10.1250 C.ar    1  UNL1        0.0963
@<TRIPOS>BOND
     1    20    21    1
     2    21    17    1
     3    17    18    2
     4    17    19    2
     5    17    16    1
     6    16    22    1
     7    22    23    1
     8    23    24   ar
     9    24    25   ar
    10    25    26   ar
    11    26    27   ar
    12    27    28   ar
    13    16     1    1
    14     1     2   ar
    15     2     3   ar
    16     3     4   ar
    17     4     5   ar
    18     5     7    1
    19     7     8   ar
    20     8     9   ar
    21     9    10   ar
    22    10    11   ar
    23    11    12   ar
    24    12    13   ar
    25    13    14   ar
    26    14    15   ar
    27     5     6   ar
    28    28    23   ar
    29     6     1   ar
    30    15     7   ar
    31    14     9   ar
@<TRIPOS>MOLECULE
*****
 28 31 0 0 0
SMALL
GASTEIGER

@<TRIPOS>ATOM
      1 C          64.4170   91.4306   13.2360 C.ar    1  UNL1        0.0880
      2 C          65.1417   92.5152   12.4955 C.ar    1  UNL1        0.1149
      3 N          64.9484   92.6716   11.0163 N.ar    1  UNL1       -0.2409
      4 C          64.0303   91.7435   10.2776 C.ar    1  UNL1        0.1009
      5 C          63.3056   90.6589   11.0181 C.ar    1  UNL1        0.0443
      6 C          63.4989   90.5025   12.4973 C.ar    1  UNL1        0.0213
      7 C          62.3875   89.7307   10.2794 C.ar    1  UNL1        0.1122
      8 N          61.2186   90.1368    9.4316 N.ar    1  UNL1       -0.2383
      9 C          60.5858   88.8906    8.8870 C.ar    1  UNL1        0.0879
     10 C          59.4018   88.6750    7.9917 C.ar    1  UNL1        0.0196
     11 C          58.9956   87.2830    7.6076 C.ar    1  UNL1        0.0016
     12 C          59.7734   86.1068    8.1189 C.ar    1  UNL1        0.0006
     13 C          60.9574   86.3224    9.0142 C.ar    1  UNL1        0.0080
     14 C          61.3636   87.7143    9.3983 C.ar    1  UNL1        0.0485
     15 S          62.4771   88.2336   10.2588 S.2     1  UNL1       -0.0664
     16 N          64.6103   91.2741   14.7153 N.pl3   1  UNL1       -0.1883
     17 S          65.8246   91.8537   15.3784 S.O2    1  UNL1        0.0572
     18 O          64.9452   92.7110   16.2396 O.2     1  UNL1       -0.1543
     19 O          66.7040   90.9963   14.5172 O.2     1  UNL1       -0.1543
     20 C          68.3473   92.4712   15.3089 C.3     1  UNL1        0.0292
     21 C          67.0389   92.4332   16.0415 C.3     1  UNL1        0.1727
     22 C          63.5894   90.5382   15.5314 C.3     1  UNL1        0.1434
     23 C          63.6754   89.0474   15.6731 C.ar    1  UNL1        0.0186
     24 C          64.4285   88.2397   14.6580 C.ar    1  UNL1        0.0006
     25 C          64.5145   86.7489   14.7998 C.ar    1  UNL1        0.0204
     26 C          63.8473   86.0658   15.9566 C.ar    1  UNL1        0.0989
     27 N          63.0942   86.8735   16.9717 N.ar    1  UNL1       -0.2426
     28 C          63.0083   88.3642   16.8300 C.ar    1  UNL1        0.0963
@<TRIPOS>BOND
     1    20    21    1
     2    21    17    1
     3    17    18    2
     4    17    19    2
     5    17    16    1
     6    16    22    1
     7    22    23    1
     8    23    24   ar
     9    24    25   ar
    10    25    26   ar
    11    26    27   ar
    12    27    28   ar
    13    16     1    1
    14     1     2   ar
    15     2     3   ar
    16     3     4   ar
    17     4     5   ar
    18     5     7    1
    19     7     8   ar
    20     8     9   ar
    21     9    10   ar
    22    10    11   ar
    23    11    12   ar
    24    12    13   ar
    25    13    14   ar
    26    14    15   ar
    27     5     6   ar
    28    28    23   ar
    29     6     1   ar
    30    15     7   ar
    31    14     9   ar
@<TRIPOS>MOLECULE
*****
 28 31 0 0 0
SMALL
GASTEIGER

@<TRIPOS>ATOM
      1 C          63.4500   89.4651   12.5343 C.ar    1  UNL1        0.0880
      2 C          62.8943   89.9837   11.2412 C.ar    1  UNL1        0.1149
      3 N          62.2908   89.0337   10.2497 N.ar    1  UNL1       -0.2409
      4 C          62.2431   87.5651   10.5512 C.ar    1  UNL1        0.1009
      5 C          62.7988   87.0465   11.8443 C.ar    1  UNL1        0.0443
      6 C          63.4023   87.9965   12.8359 C.ar    1  UNL1        0.0213
      7 C          62.7510   85.5779   12.1459 C.ar    1  UNL1        0.1122
      8 N          62.4806   84.9614   13.4863 N.ar    1  UNL1       -0.2383
      9 C          62.5277   83.4704   13.3288 C.ar    1  UNL1        0.0879
     10 C          62.3366   82.3511   14.3088 C.ar    1  UNL1        0.0196
     11 C          62.4450   80.9268   13.8511 C.ar    1  UNL1        0.0016
     12 C          62.7445   80.6218   12.4133 C.ar    1  UNL1        0.0006
     13 C          62.9357   81.7412   11.4332 C.ar    1  UNL1        0.0080
     14 C          62.8273   83.1654   11.8910 C.ar    1  UNL1        0.0485
     15 S          62.9653   84.4680   11.1599 S.2     1  UNL1       -0.0664
     16 N          64.0536   90.4151   13.5260 N.pl3   1  UNL1       -0.1883
     17 S          63.8548   90.1913   14.9958 S.O2    1  UNL1        0.0572
     18 O          64.6424   88.9177   14.9084 O.2     1  UNL1       -0.1543
     19 O          63.0672   91.4649   15.0833 O.2     1  UNL1       -0.1543
     20 C          63.0974   88.6650   16.9572 C.3     1  UNL1        0.0292
     21 C          63.6561   89.9675   16.4657 C.3     1  UNL1        0.1727
     22 C          64.8557   91.5889   13.0478 C.3     1  UNL1        0.1434
     23 C          66.1262   91.9655   13.7508 C.ar    1  UNL1        0.0186
     24 C          66.0788   92.4935   15.1540 C.ar    1  UNL1        0.0006
     25 C          67.3492   92.8701   15.8569 C.ar    1  UNL1        0.0204
     26 C          68.6671   92.7187   15.1567 C.ar    1  UNL1        0.0989
     27 N          68.7145   92.1907   13.7535 N.ar    1  UNL1       -0.2426
     28 C          67.4441   91.8141   13.0506 C.ar    1  UNL1        0.0963
@<TRIPOS>BOND
     1    20    21    1
     2    21    17    1
     3    17    18    2
     4    17    19    2
     5    17    16    1
     6    16    22    1
     7    22    23    1
     8    23    24   ar
     9    24    25   ar
    10    25    26   ar
    11    26    27   ar
    12    27    28   ar
    13    16     1    1
    14     1     2   ar
    15     2     3   ar
    16     3     4   ar
    17     4     5   ar
    18     5     7    1
    19     7     8   ar
    20     8     9   ar
    21     9    10   ar
    22    10    11   ar
    23    11    12   ar
    24    12    13   ar
    25    13    14   ar
    26    14    15   ar
    27     5     6   ar
    28    28    23   ar
    29     6     1   ar
    30    15     7   ar
    31    14     9   ar
@<TRIPOS>MOLECULE
*****
 28 31 0 0 0
SMALL
GASTEIGER

@<TRIPOS>ATOM
      1 C          63.0765   89.2574   12.3682 C.ar    1  UNL1        0.0880
      2 C          62.6777   89.6997   10.9916 C.ar    1  UNL1        0.1149
      3 N          62.2748   88.6833    9.9646 N.ar    1  UNL1       -0.2409
      4 C          62.2708   87.2246   10.3144 C.ar    1  UNL1        0.1009
      5 C          62.6696   86.7824   11.6911 C.ar    1  UNL1        0.0443
      6 C          63.0725   87.7988   12.7180 C.ar    1  UNL1        0.0213
      7 C          62.6656   85.3237   12.0408 C.ar    1  UNL1        0.1122
      8 N          62.4305   84.7446   13.4044 N.ar    1  UNL1       -0.2383
      9 C          62.5155   83.2511   13.2947 C.ar    1  UNL1        0.0879
     10 C          62.3682   82.1599   14.3133 C.ar    1  UNL1        0.0196
     11 C          62.5086   80.7247   13.9005 C.ar    1  UNL1        0.0016
     12 C          62.7963   80.3807   12.4691 C.ar    1  UNL1        0.0006
     13 C          62.9436   81.4719   11.4505 C.ar    1  UNL1        0.0080
     14 C          62.8032   82.9071   11.8633 C.ar    1  UNL1        0.0485
     15 S          62.8960   84.1880   11.0884 S.2     1  UNL1       -0.0664
     16 N          63.4794   90.2738   13.3952 N.pl3   1  UNL1       -0.1883
     17 S          63.5449   89.8908   14.8440 S.O2    1  UNL1        0.0572
     18 O          65.0434   89.9114   14.7818 O.2     1  UNL1       -0.1543
     19 O          62.0463   89.8702   14.9063 O.2     1  UNL1       -0.1543
     20 C          63.1202   88.1609   16.7354 C.3     1  UNL1        0.0292
     21 C          63.6103   89.5078   16.2928 C.3     1  UNL1        0.1727
     22 C          63.8168   91.6731   12.9734 C.3     1  UNL1        0.1434
     23 C          65.1372   91.9627   12.3231 C.ar    1  UNL1        0.0186
     24 C          65.2014   92.2534   10.8530 C.ar    1  UNL1        0.0006
     25 C          66.5218   92.5430   10.2028 C.ar    1  UNL1        0.0204
     26 C          67.7779   92.5418   11.0226 C.ar    1  UNL1        0.0989
     27 N          67.7136   92.2511   12.4928 N.ar    1  UNL1       -0.2426
     28 C          66.3933   91.9615   13.1430 C.ar    1  UNL1        0.0963
@<TRIPOS>BOND
     1    20    21    1
     2    21    17    1
     3    17    18    2
     4    17    19    2
     5    17    16    1
     6    16    22    1
     7    22    23    1
     8    23    24   ar
     9    24    25   ar
    10    25    26   ar
    11    26    27   ar
    12    27    28   ar
    13    16     1    1
    14     1     2   ar
    15     2     3   ar
    16     3     4   ar
    17     4     5   ar
    18     5     7    1
    19     7     8   ar
    20     8     9   ar
    21     9    10   ar
    22    10    11   ar
    23    11    12   ar
    24    12    13   ar
    25    13    14   ar
    26    14    15   ar
    27     5     6   ar
    28    28    23   ar
    29     6     1   ar
    30    15     7   ar
    31    14     9   ar
@<TRIPOS>MOLECULE
*****
 28 31 0 0 0
SMALL
GASTEIGER

@<TRIPOS>ATOM
      1 C          61.9381   86.9041   11.1729 C.ar    1  UNL1        0.0880
      2 C          60.4936   87.2932   11.0647 C.ar    1  UNL1        0.1149
      3 N          60.0546   88.6681   11.4732 N.ar    1  UNL1       -0.2409
      4 C          61.0602   89.6539   11.9898 C.ar    1  UNL1        0.1009
      5 C          62.5048   89.2648   12.0980 C.ar    1  UNL1        0.0443
      6 C          62.9438   87.8899   11.6895 C.ar    1  UNL1        0.0213
      7 C          63.5104   90.2507   12.6146 C.ar    1  UNL1        0.1122
      8 N          64.0925   91.4006   11.8472 N.ar    1  UNL1       -0.2383
      9 C          65.0523   92.1203   12.7477 C.ar    1  UNL1        0.0879
     10 C          65.9176   93.3266   12.5331 C.ar    1  UNL1        0.0196
     11 C          66.7940   93.8277   13.6425 C.ar    1  UNL1        0.0016
     12 C          66.8051   93.1226   14.9664 C.ar    1  UNL1        0.0006
     13 C          65.9398   91.9163   15.1809 C.ar    1  UNL1        0.0080
     14 C          65.0634   91.4152   14.0716 C.ar    1  UNL1        0.0485
     15 S          64.1105   90.2597   13.9893 S.2     1  UNL1       -0.0664
     16 N          62.3772   85.5292   10.7644 N.pl3   1  UNL1       -0.1883
     17 S          62.7597   85.2563    9.3398 S.O2    1  UNL1        0.0572
     18 O          61.9466   86.4359    8.8956 O.2     1  UNL1       -0.1543
     19 O          63.5728   84.0767    9.7841 O.2     1  UNL1       -0.1543
     20 C          62.0807   84.8799    6.8604 C.3     1  UNL1        0.0292
     21 C          63.1421   84.9834    7.9153 C.3     1  UNL1        0.1727
     22 C          62.4337   84.4271   11.7804 C.3     1  UNL1        0.1434
     23 C          62.8622   84.7249   13.1868 C.ar    1  UNL1        0.0186
     24 C          64.1900   85.3730   13.4450 C.ar    1  UNL1        0.0006
     25 C          64.6184   85.6707   14.8513 C.ar    1  UNL1        0.0204
     26 C          63.7190   85.3203   15.9994 C.ar    1  UNL1        0.0989
     27 N          62.3911   84.6721   15.7412 N.ar    1  UNL1       -0.2426
     28 C          61.9627   84.3744   14.3349 C.ar    1  UNL1        0.0963
@<TRIPOS>BOND
     1    20    21    1
     2    21    17    1
     3    17    18    2
     4    17    19    2
     5    17    16    1
     6    16    22    1
     7    22    23    1
     8    23    24   ar
     9    24    25   ar
    10    25    26   ar
    11    26    27   ar
    12    27    28   ar
    13    16     1    1
    14     1     2   ar
    15     2     3   ar
    16     3     4   ar
    17     4     5   ar
    18     5     7    1
    19     7     8   ar
    20     8     9   ar
    21     9    10   ar
    22    10    11   ar
    23    11    12   ar
    24    12    13   ar
    25    13    14   ar
    26    14    15   ar
    27     5     6   ar
    28    28    23   ar
    29     6     1   ar
    30    15     7   ar
    31    14     9   ar
@<TRIPOS>MOLECULE
*****
 28 31 0 0 0
SMALL
GASTEIGER

@<TRIPOS>ATOM
      1 C          61.5050   87.5547    9.7503 C.ar    1  UNL1        0.0880
      2 C          60.3674   88.2953    9.1123 C.ar    1  UNL1        0.1149
      3 N          60.2138   89.7706    9.3356 N.ar    1  UNL1       -0.2409
      4 C          61.1979   90.5052   10.1969 C.ar    1  UNL1        0.1009
      5 C          62.3356   89.7646   10.8349 C.ar    1  UNL1        0.0443
      6 C          62.4892   88.2893   10.6116 C.ar    1  UNL1        0.0213
      7 C          63.3197   90.4993   11.6961 C.ar    1  UNL1        0.1122
      8 N          64.1838   91.6472   11.2652 N.ar    1  UNL1       -0.2383
      9 C          65.0107   92.0724   12.4423 C.ar    1  UNL1        0.0879
     10 C          66.0394   93.1512   12.6090 C.ar    1  UNL1        0.0196
     11 C          66.7152   93.3448   13.9340 C.ar    1  UNL1        0.0016
     12 C          66.3621   92.4597   15.0924 C.ar    1  UNL1        0.0006
     13 C          65.3334   91.3809   14.9258 C.ar    1  UNL1        0.0080
     14 C          64.6576   91.1873   13.6007 C.ar    1  UNL1        0.0485
     15 S          63.6126   90.2150   13.1395 S.2     1  UNL1       -0.0664
     16 N          61.6587   86.0793    9.5271 N.pl3   1  UNL1       -0.1883
     17 S          62.0727   85.5636    8.1808 S.O2    1  UNL1        0.0572
     18 O          60.6310   85.4156    7.7941 O.2     1  UNL1       -0.1543
     19 O          63.5144   85.7116    8.5674 O.2     1  UNL1       -0.1543
     20 C          61.5061   84.2936    5.9861 C.3     1  UNL1        0.0292
     21 C          62.4867   85.0479    6.8344 C.3     1  UNL1        0.1727
     22 C          61.3982   85.1197   10.6502 C.3     1  UNL1        0.1434
     23 C          62.5314   84.6506   11.5139 C.ar    1  UNL1        0.0186
     24 C          63.3029   83.4209   11.1363 C.ar    1  UNL1        0.0006
     25 C          64.4361   82.9519   12.0000 C.ar    1  UNL1        0.0204
     26 C          64.7977   83.7125   13.2412 C.ar    1  UNL1        0.0989
     27 N          64.0261   84.9422   13.6188 N.ar    1  UNL1       -0.2426
     28 C          62.8930   85.4112   12.7551 C.ar    1  UNL1        0.0963
@<TRIPOS>BOND
     1    20    21    1
     2    21    17    1
     3    17    18    2
     4    17    19    2
     5    17    16    1
     6    16    22    1
     7    22    23    1
     8    23    24   ar
     9    24    25   ar
    10    25    26   ar
    11    26    27   ar
    12    27    28   ar
    13    16     1    1
    14     1     2   ar
    15     2     3   ar
    16     3     4   ar
    17     4     5   ar
    18     5     7    1
    19     7     8   ar
    20     8     9   ar
    21     9    10   ar
    22    10    11   ar
    23    11    12   ar
    24    12    13   ar
    25    13    14   ar
    26    14    15   ar
    27     5     6   ar
    28    28    23   ar
    29     6     1   ar
    30    15     7   ar
    31    14     9   ar
@<TRIPOS>MOLECULE
*****
 28 31 0 0 0
SMALL
GASTEIGER

@<TRIPOS>ATOM
      1 C          63.5878   86.1649   14.6585 C.ar    1  UNL1        0.0880
      2 C          63.1621   86.2514   16.0942 C.ar    1  UNL1        0.1149
      3 N          63.1759   87.5737   16.8022 N.ar    1  UNL1       -0.2409
      4 C          63.6154   88.8095   16.0744 C.ar    1  UNL1        0.1009
      5 C          64.0410   88.7230   14.6387 C.ar    1  UNL1        0.0443
      6 C          64.0273   87.4007   13.9308 C.ar    1  UNL1        0.0213
      7 C          64.4805   89.9588   13.9109 C.ar    1  UNL1        0.1122
      8 N          64.0848   90.3493   12.5178 N.ar    1  UNL1       -0.2383
      9 C          64.7526   91.6530   12.1944 C.ar    1  UNL1        0.0879
     10 C          64.7289   92.5155   10.9674 C.ar    1  UNL1        0.0196
     11 C          65.5137   93.7934   10.9339 C.ar    1  UNL1        0.0016
     12 C          66.3221   94.2087   12.1272 C.ar    1  UNL1        0.0006
     13 C          66.3457   93.3461   13.3541 C.ar    1  UNL1        0.0080
     14 C          65.5610   92.0682   13.3877 C.ar    1  UNL1        0.0485
     15 S          65.3928   91.0212   14.4486 S.2     1  UNL1       -0.0664
     16 N          63.5741   84.8425   13.9505 N.pl3   1  UNL1       -0.1883
     17 S          63.3089   84.7844   12.4753 S.O2    1  UNL1        0.0572
     18 O          61.9834   85.4538   12.6872 O.2     1  UNL1       -0.1543
     19 O          64.6344   84.1150   12.2634 O.2     1  UNL1       -0.1543
     20 C          63.6613   83.6406   10.1693 C.3     1  UNL1        0.0292
     21 C          63.0438   84.7262   11.0001 C.3     1  UNL1        0.1727
     22 C          63.8254   83.5783   14.7178 C.3     1  UNL1        0.1434
     23 C          63.1170   82.3136   14.3322 C.ar    1  UNL1        0.0186
     24 C          61.6328   82.1993   14.5163 C.ar    1  UNL1        0.0006
     25 C          60.9245   80.9345   14.1308 C.ar    1  UNL1        0.0204
     26 C          61.7004   79.7841   13.5612 C.ar    1  UNL1        0.0989
     27 N          63.1846   79.8984   13.3772 N.ar    1  UNL1       -0.2426
     28 C          63.8929   81.1631   13.7627 C.ar    1  UNL1        0.0963
@<TRIPOS>BOND
     1    20    21    1
     2    21    17    1
     3    17    18    2
     4    17    19    2
     5    17    16    1
     6    16    22    1
     7    22    23    1
     8    23    24   ar
     9    24    25   ar
    10    25    26   ar
    11    26    27   ar
    12    27    28   ar
    13    16     1    1
    14     1     2   ar
    15     2     3   ar
    16     3     4   ar
    17     4     5   ar
    18     5     7    1
    19     7     8   ar
    20     8     9   ar
    21     9    10   ar
    22    10    11   ar
    23    11    12   ar
    24    12    13   ar
    25    13    14   ar
    26    14    15   ar
    27     5     6   ar
    28    28    23   ar
    29     6     1   ar
    30    15     7   ar
    31    14     9   ar
@<TRIPOS>MOLECULE
*****
 28 31 0 0 0
SMALL
GASTEIGER

@<TRIPOS>ATOM
      1 C          64.8260   90.8225   14.4729 C.ar    1  UNL1        0.0880
      2 C          65.2100   91.3585   15.8201 C.ar    1  UNL1        0.1149
      3 N          65.9315   92.6691   15.9280 N.ar    1  UNL1       -0.2409
      4 C          66.2691   93.4437   14.6886 C.ar    1  UNL1        0.1009
      5 C          65.8851   92.9076   13.3413 C.ar    1  UNL1        0.0443
      6 C          65.1636   91.5970   13.2335 C.ar    1  UNL1        0.0213
      7 C          66.2226   93.6822   12.1019 C.ar    1  UNL1        0.1122
      8 N          66.1553   95.1727   11.9480 N.ar    1  UNL1       -0.2383
      9 C          66.5778   95.5140   10.5497 C.ar    1  UNL1        0.0879
     10 C          66.7058   96.8246    9.8315 C.ar    1  UNL1        0.0196
     11 C          67.1624   96.8555    8.4031 C.ar    1  UNL1        0.0016
     12 C          67.4908   95.5758    7.6928 C.ar    1  UNL1        0.0006
     13 C          67.3628   94.2652    8.4110 C.ar    1  UNL1        0.0080
     14 C          66.9062   94.2343    9.8395 C.ar    1  UNL1        0.0485
     15 S          66.6867   93.1022   10.7987 S.2     1  UNL1       -0.0664
     16 N          64.1045   89.5118   14.3650 N.pl3   1  UNL1       -0.1883
     17 S          63.4998   88.8858   15.5866 S.O2    1  UNL1        0.0572
     18 O          62.7168   90.1395   15.8415 O.2     1  UNL1       -0.1543
     19 O          64.2828   87.6320   15.3317 O.2     1  UNL1       -0.1543
     20 C          62.9260   86.7700   16.9811 C.3     1  UNL1        0.0292
     21 C          62.8951   88.2598   16.8083 C.3     1  UNL1        0.1727
     22 C          63.9876   88.8272   13.0355 C.3     1  UNL1        0.1434
     23 C          62.7282   88.9599   12.2316 C.ar    1  UNL1        0.0186
     24 C          62.3124   87.8589   11.3016 C.ar    1  UNL1        0.0006
     25 C          61.0530   87.9917   10.4978 C.ar    1  UNL1        0.0204
     26 C          60.2093   89.2255   10.6240 C.ar    1  UNL1        0.0989
     27 N          60.6250   90.3265   11.5540 N.ar    1  UNL1       -0.2426
     28 C          61.8844   90.1937   12.3578 C.ar    1  UNL1        0.0963
@<TRIPOS>BOND
     1    20    21    1
     2    21    17    1
     3    17    18    2
     4    17    19    2
     5    17    16    1
     6    16    22    1
     7    22    23    1
     8    23    24   ar
     9    24    25   ar
    10    25    26   ar
    11    26    27   ar
    12    27    28   ar
    13    16     1    1
    14     1     2   ar
    15     2     3   ar
    16     3     4   ar
    17     4     5   ar
    18     5     7    1
    19     7     8   ar
    20     8     9   ar
    21     9    10   ar
    22    10    11   ar
    23    11    12   ar
    24    12    13   ar
    25    13    14   ar
    26    14    15   ar
    27     5     6   ar
    28    28    23   ar
    29     6     1   ar
    30    15     7   ar
    31    14     9   ar
