@<TRIPOS>MOLECULE
*****
 26 30 0 0 0
SMALL
GASTEIGER

@<TRIPOS>ATOM
      1 C          62.9184   82.5800   13.5344 C.3     1  UNL1        0.1420
      2 O          63.5846   82.2105   14.8265 O.3     1  UNL1       -0.3753
      3 C          62.1598   82.4630   12.2456 C.3     1  UNL1        0.0395
      4 C          62.0747   83.8293   11.6323 C.3     1  UNL1        0.0035
      5 C          62.7808   84.7906   12.5419 C.3     1  UNL1        0.0032
      6 C          63.0163   86.2692   12.4516 C.3     1  UNL1        0.0007
      7 C          62.4948   87.0412   11.2759 C.3     1  UNL1        0.0044
      8 C          62.7303   88.5199   11.1857 C.3     1  UNL1        0.0221
      9 C          63.4872   89.2265   12.2710 C.2     1  UNL1       -0.0414
     10 C          63.7227   90.7052   12.1806 C.2     1  UNL1        0.0314
     11 C          64.4796   91.4117   13.2659 C.ar    1  UNL1        0.1723
     12 O          64.8634   92.8502   13.4490 O.2     1  UNL1       -0.3537
     13 N          65.6220   92.9671   14.7377 N.ar    1  UNL1       -0.0757
     14 C          65.7071   91.6009   15.3511 C.ar    1  UNL1        0.1394
     15 C          65.0010   90.6396   14.4415 C.ar    1  UNL1        0.0376
     16 C          64.7655   89.1610   14.5318 C.3     1  UNL1        0.0349
     17 C          64.0086   88.4544   13.4465 C.3     1  UNL1        0.0195
     18 C          64.5301   87.6823   14.6221 C.3     1  UNL1        0.0044
     19 C          63.7732   86.9757   13.5369 C.3     1  UNL1        0.0038
     20 C          64.2946   86.2037   14.7124 C.3     1  UNL1        0.0004
     21 C          64.0591   84.7250   14.8027 C.3     1  UNL1        0.0032
     22 C          63.3022   84.0185   13.7174 C.3     1  UNL1        0.0333
     23 C          63.8336   83.2685   14.9029 C.3     1  UNL1        0.0033
     24 H          63.4871   81.2576   14.9797 H       1  UNL1        0.2114
     25 C          62.4475   79.6227   13.7150 C.1     1  UNL1       -0.0119
     26 C          62.6830   81.1014   13.6247 C.1     1  UNL1       -0.0526
@<TRIPOS>BOND
     1    25    26    3
     2    26     1    1
     3     1     2    1
     4     1     3    1
     5     3     4    1
     6     5     4    1
     7     5     6    1
     8     6     7    1
     9     7     8    1
    10     8     9    1
    11     9    10    2
    12    10    11    1
    13    11    12   ar
    14    12    13   ar
    15    13    14   ar
    16    14    15   ar
    17    15    16    1
    18    16    17    1
    19    17    18    1
    20    17    19    1
    21    19    20    1
    22    20    21    1
    23    21    22    1
    24    22    23    1
    25    22     1    1
    26    22     5    1
    27    19     6    1
    28    17     9    1
    29    15    11   ar
    30     2    24    1
@<TRIPOS>MOLECULE
*****
 26 30 0 0 0
SMALL
GASTEIGER

@<TRIPOS>ATOM
      1 C          66.0949   92.2440   13.8722 C.3     1  UNL1        0.1420
      2 O          66.1014   93.5085   13.0655 O.3     1  UNL1       -0.3753
      3 C          66.4172   91.2416   14.9406 C.3     1  UNL1        0.0395
      4 C          65.6075   90.0067   14.6769 C.3     1  UNL1        0.0035
      5 C          64.7848   90.2459   13.4456 C.3     1  UNL1        0.0032
      6 C          63.8004   89.3833   12.7130 C.3     1  UNL1        0.0007
      7 C          63.4992   88.0005   13.2104 C.3     1  UNL1        0.0044
      8 C          62.5148   87.1379   12.4778 C.3     1  UNL1        0.0221
      9 C          61.8315   87.6580   11.2478 C.2     1  UNL1       -0.0414
     10 C          60.8470   86.7953   10.5152 C.2     1  UNL1        0.0314
     11 C          60.1637   87.3155    9.2853 C.ar    1  UNL1        0.1723
     12 O          59.1549   86.7001    8.3614 O.2     1  UNL1       -0.3537
     13 N          58.8327   87.7025    7.2932 N.ar    1  UNL1       -0.0757
     14 C          59.6423   88.9374    7.5568 C.ar    1  UNL1        0.1394
     15 C          60.4649   88.6982    8.7881 C.ar    1  UNL1        0.0376
     16 C          61.4494   89.5608    9.5207 C.3     1  UNL1        0.0349
     17 C          62.1326   89.0407   10.7505 C.3     1  UNL1        0.0195
     18 C          62.4339   90.4235   10.2533 C.3     1  UNL1        0.0044
     19 C          63.1171   89.9034   11.4831 C.3     1  UNL1        0.0038
     20 C          63.4183   91.2861   10.9859 C.3     1  UNL1        0.0004
     21 C          64.4028   92.1488   11.7185 C.3     1  UNL1        0.0032
     22 C          65.0860   91.6286   12.9483 C.3     1  UNL1        0.0333
     23 C          65.3704   93.0078   12.4313 C.3     1  UNL1        0.0033
     24 H          66.7179   94.1428   13.4635 H       1  UNL1        0.2114
     25 C          68.0638   93.9693   15.3374 C.1     1  UNL1       -0.0119
     26 C          67.0793   93.1067   14.6048 C.1     1  UNL1       -0.0526
@<TRIPOS>BOND
     1    25    26    3
     2    26     1    1
     3     1     2    1
     4     1     3    1
     5     3     4    1
     6     5     4    1
     7     5     6    1
     8     6     7    1
     9     7     8    1
    10     8     9    1
    11     9    10    2
    12    10    11    1
    13    11    12   ar
    14    12    13   ar
    15    13    14   ar
    16    14    15   ar
    17    15    16    1
    18    16    17    1
    19    17    18    1
    20    17    19    1
    21    19    20    1
    22    20    21    1
    23    21    22    1
    24    22    23    1
    25    22     1    1
    26    22     5    1
    27    19     6    1
    28    17     9    1
    29    15    11   ar
    30     2    24    1
@<TRIPOS>MOLECULE
*****
 26 30 0 0 0
SMALL
GASTEIGER

@<TRIPOS>ATOM
      1 C          60.6356   87.9866    9.4356 C.3     1  UNL1        0.1420
      2 O          60.3857   89.0916    8.4526 O.3     1  UNL1       -0.3753
      3 C          60.5640   86.6532   10.1191 C.3     1  UNL1        0.0395
      4 C          61.4696   86.6958   11.3141 C.3     1  UNL1        0.0035
      5 C          62.1009   88.0554   11.3692 C.3     1  UNL1        0.0032
      6 C          63.0785   88.6701   12.3265 C.3     1  UNL1        0.0007
      7 C          63.5939   87.8722   13.4875 C.3     1  UNL1        0.0044
      8 C          64.5715   88.4869   14.4449 C.3     1  UNL1        0.0221
      9 C          65.0336   89.8994   14.2412 C.2     1  UNL1       -0.0414
     10 C          66.0112   90.5141   15.1986 C.2     1  UNL1        0.0314
     11 C          66.4734   91.9265   14.9949 C.ar    1  UNL1        0.1723
     12 O          67.4232   92.7930   15.7676 O.2     1  UNL1       -0.3537
     13 N          67.4947   94.1263   15.0841 N.ar    1  UNL1       -0.0757
     14 C          66.5891   94.0838   13.8890 C.ar    1  UNL1        0.1394
     15 C          65.9579   92.7243   13.8339 C.ar    1  UNL1        0.0376
     16 C          64.9803   92.1096   12.8766 C.3     1  UNL1        0.0349
     17 C          64.5182   90.6972   13.0803 C.3     1  UNL1        0.0195
     18 C          64.0027   91.4949   11.9193 C.3     1  UNL1        0.0044
     19 C          63.5406   90.0825   12.1229 C.3     1  UNL1        0.0038
     20 C          63.0252   90.8802   10.9620 C.3     1  UNL1        0.0004
     21 C          62.0475   90.2656   10.0045 C.3     1  UNL1        0.0032
     22 C          61.5854   88.8531   10.2082 C.3     1  UNL1        0.0333
     23 C          61.0846   89.6712    9.0550 C.3     1  UNL1        0.0033
     24 H          59.7553   88.7897    7.7800 H       1  UNL1        0.2114
     25 C          58.6804   86.7573    7.5209 C.1     1  UNL1       -0.0119
     26 C          59.6580   87.3719    8.4783 C.1     1  UNL1       -0.0526
@<TRIPOS>BOND
     1    25    26    3
     2    26     1    1
     3     1     2    1
     4     1     3    1
     5     3     4    1
     6     5     4    1
     7     5     6    1
     8     6     7    1
     9     7     8    1
    10     8     9    1
    11     9    10    2
    12    10    11    1
    13    11    12   ar
    14    12    13   ar
    15    13    14   ar
    16    14    15   ar
    17    15    16    1
    18    16    17    1
    19    17    18    1
    20    17    19    1
    21    19    20    1
    22    20    21    1
    23    21    22    1
    24    22    23    1
    25    22     1    1
    26    22     5    1
    27    19     6    1
    28    17     9    1
    29    15    11   ar
    30     2    24    1
@<TRIPOS>MOLECULE
*****
 26 30 0 0 0
SMALL
GASTEIGER

@<TRIPOS>ATOM
      1 C          60.1027   88.7613    8.0255 C.3     1  UNL1        0.1420
      2 O          59.4781   87.6897    7.1821 O.3     1  UNL1       -0.3753
      3 C          60.5077   90.1157    8.5271 C.3     1  UNL1        0.0395
      4 C          61.3390   89.9236    9.7609 C.3     1  UNL1        0.0035
      5 C          61.4478   88.4505   10.0218 C.3     1  UNL1        0.0032
      6 C          62.1438   87.6704   11.0974 C.3     1  UNL1        0.0007
      7 C          62.9079   88.3888   12.1699 C.3     1  UNL1        0.0044
      8 C          63.6039   87.6087   13.2455 C.3     1  UNL1        0.0221
      9 C          63.5359   86.1102   13.2486 C.2     1  UNL1       -0.0414
     10 C          64.2320   85.3301   14.3243 C.2     1  UNL1        0.0314
     11 C          64.1640   83.8317   14.3274 C.ar    1  UNL1        0.1723
     12 O          64.7450   82.8026   15.2512 O.2     1  UNL1       -0.3537
     13 N          64.3400   81.4482   14.7496 N.ar    1  UNL1       -0.0757
     14 C          63.5087   81.6402   13.5159 C.ar    1  UNL1        0.1394
     15 C          63.4000   83.1133   13.2549 C.ar    1  UNL1        0.0376
     16 C          62.7039   83.8934   12.1793 C.3     1  UNL1        0.0349
     17 C          62.7719   85.3919   12.1762 C.3     1  UNL1        0.0195
     18 C          62.0079   84.6735   11.1037 C.3     1  UNL1        0.0044
     19 C          62.0758   86.1719   11.1005 C.3     1  UNL1        0.0038
     20 C          61.3118   85.4536   10.0281 C.3     1  UNL1        0.0004
     21 C          60.6157   86.2337    8.9524 C.3     1  UNL1        0.0032
     22 C          60.6837   87.7321    8.9493 C.3     1  UNL1        0.0333
     23 C          59.9261   86.9909    7.8879 C.3     1  UNL1        0.0033
     24 H          58.9958   88.0977    6.4459 H       1  UNL1        0.2114
     25 C          58.7106   90.3214    5.8743 C.1     1  UNL1       -0.0119
     26 C          59.4067   89.5414    6.9499 C.1     1  UNL1       -0.0526
@<TRIPOS>BOND
     1    25    26    3
     2    26     1    1
     3     1     2    1
     4     1     3    1
     5     3     4    1
     6     5     4    1
     7     5     6    1
     8     6     7    1
     9     7     8    1
    10     8     9    1
    11     9    10    2
    12    10    11    1
    13    11    12   ar
    14    12    13   ar
    15    13    14   ar
    16    14    15   ar
    17    15    16    1
    18    16    17    1
    19    17    18    1
    20    17    19    1
    21    19    20    1
    22    20    21    1
    23    21    22    1
    24    22    23    1
    25    22     1    1
    26    22     5    1
    27    19     6    1
    28    17     9    1
    29    15    11   ar
    30     2    24    1
@<TRIPOS>MOLECULE
*****
 26 30 0 0 0
SMALL
GASTEIGER

@<TRIPOS>ATOM
      1 C          63.0253   81.4547   11.8734 C.3     1  UNL1        0.1420
      2 O          63.4713   81.8810   10.5062 O.3     1  UNL1       -0.3753
      3 C          62.5517   80.5929   13.0062 C.3     1  UNL1        0.0395
      4 C          62.4106   81.4611   14.2213 C.3     1  UNL1        0.0035
      5 C          62.7970   82.8593   13.8395 C.3     1  UNL1        0.0032
      6 C          62.8520   84.1356   14.6257 C.3     1  UNL1        0.0007
      7 C          62.4721   84.1395   16.0768 C.3     1  UNL1        0.0044
      8 C          62.5271   85.4158   16.8629 C.3     1  UNL1        0.0221
      9 C          62.9621   86.6882   16.1980 C.2     1  UNL1       -0.0414
     10 C          63.0171   87.9645   16.9842 C.2     1  UNL1        0.0314
     11 C          63.4520   89.2367   16.3193 C.ar    1  UNL1        0.1723
     12 O          63.6036   90.6374   16.8343 O.2     1  UNL1       -0.3537
     13 N          64.0772   91.4990   15.7015 N.ar    1  UNL1       -0.0757
     14 C          64.2183   90.6309   14.4864 C.ar    1  UNL1        0.1394
     15 C          63.8319   89.2327   14.8682 C.ar    1  UNL1        0.0376
     16 C          63.7769   87.9564   14.0820 C.3     1  UNL1        0.0349
     17 C          63.3420   86.6842   14.7470 C.3     1  UNL1        0.0195
     18 C          63.7219   86.6802   13.2959 C.3     1  UNL1        0.0044
     19 C          63.2870   85.4079   13.9607 C.3     1  UNL1        0.0038
     20 C          63.6669   85.4039   12.5097 C.3     1  UNL1        0.0004
     21 C          63.6119   84.1276   11.7235 C.3     1  UNL1        0.0032
     22 C          63.1769   82.8553   12.3884 C.3     1  UNL1        0.0333
     23 C          63.5618   82.8770   10.9387 C.3     1  UNL1        0.0033
     24 H          63.4703   81.1143    9.9120 H       1  UNL1        0.2114
     25 C          62.9153   78.9021   10.3011 C.1     1  UNL1       -0.0119
     26 C          62.9703   80.1784   11.0872 C.1     1  UNL1       -0.0526
@<TRIPOS>BOND
     1    25    26    3
     2    26     1    1
     3     1     2    1
     4     1     3    1
     5     3     4    1
     6     5     4    1
     7     5     6    1
     8     6     7    1
     9     7     8    1
    10     8     9    1
    11     9    10    2
    12    10    11    1
    13    11    12   ar
    14    12    13   ar
    15    13    14   ar
    16    14    15   ar
    17    15    16    1
    18    16    17    1
    19    17    18    1
    20    17    19    1
    21    19    20    1
    22    20    21    1
    23    21    22    1
    24    22    23    1
    25    22     1    1
    26    22     5    1
    27    19     6    1
    28    17     9    1
    29    15    11   ar
    30     2    24    1
