@<TRIPOS>MOLECULE
*****
 33 37 0 0 0
SMALL
GASTEIGER

@<TRIPOS>ATOM
      1 C          62.7653   86.7580   11.9341 C.2     1  UNL1        0.2506
      2 O          63.5979   87.4106   12.9975 O.2     1  UNL1       -0.2699
      3 N          61.7586   87.5651   11.1692 N.am    1  UNL1       -0.2723
      4 C          60.9260   86.9125   10.1057 C.3     1  UNL1        0.1257
      5 C          59.9193   87.7195    9.3408 C.3     1  UNL1        0.1637
      6 O          59.7452   89.1792    9.6393 O.3     1  UNL1       -0.3502
      7 C          60.5777   89.8318   10.7027 C.3     1  UNL1        0.1622
      8 C          61.5845   89.0247   11.4677 C.3     1  UNL1        0.1096
      9 C          63.4618   80.9194   10.7402 C.3     1  UNL1        0.0311
     10 C          63.2877   82.3790   11.0387 C.ar    1  UNL1       -0.0203
     11 C          63.1519   83.3633    9.9150 C.ar    1  UNL1       -0.0040
     12 C          62.9778   84.8230   10.2135 C.ar    1  UNL1        0.0058
     13 C          62.9395   85.2983   11.6356 C.ar    1  UNL1        0.0729
     14 C          63.0753   84.3140   12.7593 C.ar    1  UNL1        0.1069
     15 C          63.2494   82.8544   12.4608 C.ar    1  UNL1        0.0168
     16 N          63.0369   84.7894   14.1815 N.ar    1  UNL1       -0.1477
     17 N          61.8347   84.7907   15.0786 N.ar    1  UNL1       -0.1447
     18 C          62.2488   85.3489   16.4078 C.ar    1  UNL1        0.1446
     19 C          63.7070   85.6927   16.3322 C.ar    1  UNL1        0.1446
     20 N          64.1940   85.3468   14.9563 N.ar    1  UNL1       -0.1447
     21 C          62.4171   89.6773   12.5311 C.3     1  UNL1        0.0488
     22 C          63.4716   90.6743   12.1515 C.ar    1  UNL1       -0.0189
     23 C          63.4849   91.2636   10.7722 C.ar    1  UNL1       -0.0044
     24 C          64.5393   92.2606   10.3927 C.ar    1  UNL1       -0.0030
     25 C          65.5805   92.6684   11.3925 C.ar    1  UNL1       -0.0025
     26 C          66.6349   93.6655   11.0130 C.3     1  UNL1        0.0327
     27 C          65.5672   92.0792   12.7718 C.ar    1  UNL1        0.0986
     28 C          64.5127   91.0822   13.1513 C.ar    1  UNL1        0.0164
     29 N          66.6083   92.4870   13.7717 N.ar    1  UNL1       -0.1481
     30 N          66.4008   93.4140   14.9325 N.ar    1  UNL1       -0.1447
     31 C          67.7040   93.5393   15.6645 C.ar    1  UNL1        0.1446
     32 C          68.7171   92.6897   14.9561 C.ar    1  UNL1        0.1446
     33 N          68.0399   92.0393   13.7863 N.ar    1  UNL1       -0.1447
@<TRIPOS>BOND
     1     9    10    1
     2    10    11   ar
     3    11    12   ar
     4    12    13   ar
     5    13     1    1
     6     1     2    2
     7     1     3   am
     8     3     4    1
     9     4     5    1
    10     5     6    1
    11     6     7    1
    12     7     8    1
    13     8    21    1
    14    21    22    1
    15    22    23   ar
    16    23    24   ar
    17    24    25   ar
    18    25    26    1
    19    25    27   ar
    20    27    29    1
    21    29    30   ar
    22    30    31   ar
    23    31    32   ar
    24    32    33   ar
    25    27    28   ar
    26    13    14   ar
    27    14    16    1
    28    16    17   ar
    29    17    18   ar
    30    18    19   ar
    31    19    20   ar
    32    14    15   ar
    33    15    10   ar
    34     8     3    1
    35    28    22   ar
    36    20    16   ar
    37    33    29   ar
@<TRIPOS>MOLECULE
*****
 33 37 0 0 0
SMALL
GASTEIGER

@<TRIPOS>ATOM
      1 C          62.9304   87.0553   12.2922 C.2     1  UNL1        0.2506
      2 O          63.4702   87.4638   13.6307 O.2     1  UNL1       -0.2699
      3 N          62.2558   88.0677   11.4149 N.am    1  UNL1       -0.2723
      4 C          61.7159   87.6592   10.0763 C.3     1  UNL1        0.1257
      5 C          61.0413   88.6716    9.1989 C.3     1  UNL1        0.1637
      6 O          60.9065   90.0926    9.6600 O.3     1  UNL1       -0.3502
      7 C          61.4464   90.5012   10.9985 C.3     1  UNL1        0.1622
      8 C          62.1210   89.4887   11.8760 C.3     1  UNL1        0.1096
      9 C          63.4695   81.3713   10.4478 C.3     1  UNL1        0.0311
     10 C          63.3347   82.7923   10.9089 C.ar    1  UNL1       -0.0203
     11 C          63.2367   83.9010    9.9034 C.ar    1  UNL1       -0.0040
     12 C          63.1019   85.3220   10.3645 C.ar    1  UNL1        0.0058
     13 C          63.0652   85.6343   11.8311 C.ar    1  UNL1        0.0729
     14 C          63.1632   84.5256   12.8366 C.ar    1  UNL1        0.1069
     15 C          63.2980   83.1046   12.3755 C.ar    1  UNL1        0.0168
     16 N          63.1265   84.8379   14.3034 N.ar    1  UNL1       -0.1477
     17 N          64.3047   85.2029   15.1569 N.ar    1  UNL1       -0.1447
     18 C          63.8115   85.4306   16.5551 C.ar    1  UNL1        0.1446
     19 C          62.3284   85.2062   16.5657 C.ar    1  UNL1        0.1446
     20 N          61.9050   84.8399   15.1741 N.ar    1  UNL1       -0.1447
     21 C          62.6609   89.8973   13.2145 C.3     1  UNL1        0.0488
     22 C          63.9881   90.5899   13.3083 C.ar    1  UNL1       -0.0189
     23 C          64.8672   90.3678   14.5031 C.ar    1  UNL1       -0.0044
     24 C          66.1944   91.0605   14.5969 C.ar    1  UNL1       -0.0030
     25 C          66.6425   91.9752   13.4959 C.ar    1  UNL1       -0.0025
     26 C          67.9697   92.6678   13.5897 C.3     1  UNL1        0.0327
     27 C          65.7633   92.1973   12.3010 C.ar    1  UNL1        0.0986
     28 C          64.4361   91.5047   12.2072 C.ar    1  UNL1        0.0164
     29 N          66.2114   93.1121   11.1998 N.ar    1  UNL1       -0.1481
     30 N          65.7888   94.5390   11.0122 N.ar    1  UNL1       -0.1447
     31 C          66.4769   95.0693    9.7894 C.ar    1  UNL1        0.1446
     32 C          67.3249   93.9701    9.2213 C.ar    1  UNL1        0.1446
     33 N          67.1608   92.7605   10.0930 N.ar    1  UNL1       -0.1447
@<TRIPOS>BOND
     1     9    10    1
     2    10    11   ar
     3    11    12   ar
     4    12    13   ar
     5    13     1    1
     6     1     2    2
     7     1     3   am
     8     3     4    1
     9     4     5    1
    10     5     6    1
    11     6     7    1
    12     7     8    1
    13     8    21    1
    14    21    22    1
    15    22    23   ar
    16    23    24   ar
    17    24    25   ar
    18    25    26    1
    19    25    27   ar
    20    27    29    1
    21    29    30   ar
    22    30    31   ar
    23    31    32   ar
    24    32    33   ar
    25    27    28   ar
    26    13    14   ar
    27    14    16    1
    28    16    17   ar
    29    17    18   ar
    30    18    19   ar
    31    19    20   ar
    32    14    15   ar
    33    15    10   ar
    34     8     3    1
    35    28    22   ar
    36    20    16   ar
    37    33    29   ar
@<TRIPOS>MOLECULE
*****
 33 37 0 0 0
SMALL
GASTEIGER

@<TRIPOS>ATOM
      1 C          63.4737   86.8885   13.5587 C.2     1  UNL1        0.2506
      2 O          63.5910   87.9141   12.4704 O.2     1  UNL1       -0.2699
      3 N          63.3446   87.3235   14.9884 N.am    1  UNL1       -0.2723
      4 C          63.2273   86.2979   16.0768 C.3     1  UNL1        0.1257
      5 C          63.0982   86.7329   17.5064 C.3     1  UNL1        0.1637
      6 O          63.0864   88.1935   17.8479 O.3     1  UNL1       -0.3502
      7 C          63.2037   89.2191   16.7596 C.3     1  UNL1        0.1622
      8 C          63.3328   88.7841   15.3298 C.3     1  UNL1        0.1096
      9 C          63.5208   81.0462   12.1930 C.3     1  UNL1        0.0311
     10 C          63.5090   82.5068   12.5344 C.ar    1  UNL1       -0.0203
     11 C          64.2431   82.9997   13.7461 C.ar    1  UNL1       -0.0040
     12 C          64.2313   84.4603   14.0875 C.ar    1  UNL1        0.0058
     13 C          63.4854   85.4279   13.2173 C.ar    1  UNL1        0.0729
     14 C          62.7514   84.9350   12.0056 C.ar    1  UNL1        0.1069
     15 C          62.7632   83.4744   11.6642 C.ar    1  UNL1        0.0168
     16 N          62.0055   85.9027   11.1353 N.ar    1  UNL1       -0.1477
     17 N          62.2907   86.1903    9.6910 N.ar    1  UNL1       -0.1447
     18 C          61.3050   87.2179    9.2196 C.ar    1  UNL1        0.1446
     19 C          60.4106   87.5654   10.3725 C.ar    1  UNL1        0.1446
     20 N          60.8435   86.7525   11.5565 N.ar    1  UNL1       -0.1447
     21 C          63.4501   89.8097   14.2415 C.3     1  UNL1        0.0488
     22 C          64.4763   90.8989   14.3448 C.ar    1  UNL1       -0.0189
     23 C          65.0216   91.2907   15.6861 C.ar    1  UNL1       -0.0044
     24 C          66.0478   92.3799   15.7894 C.ar    1  UNL1       -0.0030
     25 C          66.5286   93.0772   14.5514 C.ar    1  UNL1       -0.0025
     26 C          67.5547   94.1664   14.6547 C.3     1  UNL1        0.0327
     27 C          65.9832   92.6854   13.2102 C.ar    1  UNL1        0.0986
     28 C          64.9571   91.5962   13.1069 C.ar    1  UNL1        0.0164
     29 N          66.4640   93.3827   11.9721 N.ar    1  UNL1       -0.1481
     30 N          67.3252   92.7829   10.9005 N.ar    1  UNL1       -0.1447
     31 C          67.5614   93.8318    9.8545 C.ar    1  UNL1        0.1446
     32 C          66.8461   95.0798   10.2797 C.ar    1  UNL1        0.1446
     33 N          66.1679   94.8023   11.5885 N.ar    1  UNL1       -0.1447
@<TRIPOS>BOND
     1     9    10    1
     2    10    11   ar
     3    11    12   ar
     4    12    13   ar
     5    13     1    1
     6     1     2    2
     7     1     3   am
     8     3     4    1
     9     4     5    1
    10     5     6    1
    11     6     7    1
    12     7     8    1
    13     8    21    1
    14    21    22    1
    15    22    23   ar
    16    23    24   ar
    17    24    25   ar
    18    25    26    1
    19    25    27   ar
    20    27    29    1
    21    29    30   ar
    22    30    31   ar
    23    31    32   ar
    24    32    33   ar
    25    27    28   ar
    26    13    14   ar
    27    14    16    1
    28    16    17   ar
    29    17    18   ar
    30    18    19   ar
    31    19    20   ar
    32    14    15   ar
    33    15    10   ar
    34     8     3    1
    35    28    22   ar
    36    20    16   ar
    37    33    29   ar
@<TRIPOS>MOLECULE
*****
 33 37 0 0 0
SMALL
GASTEIGER

@<TRIPOS>ATOM
      1 C          62.7102   88.3906   11.6447 C.2     1  UNL1        0.2506
      2 O          62.7177   89.8905   11.6538 O.2     1  UNL1       -0.2699
      3 N          63.3088   87.6307   12.7911 N.am    1  UNL1       -0.2723
      4 C          63.3014   86.1307   12.7821 C.3     1  UNL1        0.1257
      5 C          63.9000   85.3708   13.9284 C.3     1  UNL1        0.1637
      6 O          64.5060   86.1109   15.0839 O.3     1  UNL1       -0.3502
      7 C          64.5135   87.6108   15.0929 C.3     1  UNL1        0.1622
      8 C          63.9149   88.3707   13.9465 C.3     1  UNL1        0.1096
      9 C          60.2861   85.4304    7.0229 C.3     1  UNL1        0.0311
     10 C          60.8921   86.1704    8.1784 C.ar    1  UNL1       -0.0203
     11 C          62.3148   85.9075    8.5742 C.ar    1  UNL1       -0.0040
     12 C          62.9209   86.6476    9.7296 C.ar    1  UNL1        0.0058
     13 C          62.1042   87.6505   10.4893 C.ar    1  UNL1        0.0729
     14 C          60.6815   87.9134   10.0934 C.ar    1  UNL1        0.1069
     15 C          60.0754   87.1734    8.9380 C.ar    1  UNL1        0.0168
     16 N          59.8647   88.9164   10.8531 N.ar    1  UNL1       -0.1477
     17 N          59.1059   88.6570   12.1207 N.ar    1  UNL1       -0.1447
     18 C          58.4356   89.9351   12.5296 C.ar    1  UNL1        0.1446
     19 C          58.7802   90.9845   11.5145 C.ar    1  UNL1        0.1446
     20 N          59.6634   90.3549   10.4785 N.ar    1  UNL1       -0.1447
     21 C          63.9223   89.8707   13.9556 C.3     1  UNL1        0.0488
     22 C          65.2249   90.6143   13.9412 C.ar    1  UNL1       -0.0189
     23 C          66.0708   90.6694   15.1786 C.ar    1  UNL1       -0.0044
     24 C          67.3734   91.4131   15.1642 C.ar    1  UNL1       -0.0030
     25 C          67.8301   92.1016   13.9123 C.ar    1  UNL1       -0.0025
     26 C          69.1327   92.8453   13.8979 C.3     1  UNL1        0.0327
     27 C          66.9842   92.0466   12.6749 C.ar    1  UNL1        0.0986
     28 C          65.6816   91.3029   12.6893 C.ar    1  UNL1        0.0164
     29 N          67.4408   92.7352   11.4229 N.ar    1  UNL1       -0.1481
     30 N          68.3933   92.1774   10.4072 N.ar    1  UNL1       -0.1447
     31 C          68.5663   93.1999    9.3234 C.ar    1  UNL1        0.1446
     32 C          67.7207   94.3897    9.6693 C.ar    1  UNL1        0.1446
     33 N          67.0252   94.1024   10.9669 N.ar    1  UNL1       -0.1447
@<TRIPOS>BOND
     1     9    10    1
     2    10    11   ar
     3    11    12   ar
     4    12    13   ar
     5    13     1    1
     6     1     2    2
     7     1     3   am
     8     3     4    1
     9     4     5    1
    10     5     6    1
    11     6     7    1
    12     7     8    1
    13     8    21    1
    14    21    22    1
    15    22    23   ar
    16    23    24   ar
    17    24    25   ar
    18    25    26    1
    19    25    27   ar
    20    27    29    1
    21    29    30   ar
    22    30    31   ar
    23    31    32   ar
    24    32    33   ar
    25    27    28   ar
    26    13    14   ar
    27    14    16    1
    28    16    17   ar
    29    17    18   ar
    30    18    19   ar
    31    19    20   ar
    32    14    15   ar
    33    15    10   ar
    34     8     3    1
    35    28    22   ar
    36    20    16   ar
    37    33    29   ar
@<TRIPOS>MOLECULE
*****
 33 37 0 0 0
SMALL
GASTEIGER

@<TRIPOS>ATOM
      1 C          62.6636   89.1523   11.5527 C.2     1  UNL1        0.2506
      2 O          62.8248   88.0005   12.4999 O.2     1  UNL1       -0.2699
      3 N          61.6265   89.0940   10.4706 N.am    1  UNL1       -0.2723
      4 C          61.4652   90.2458    9.5233 C.3     1  UNL1        0.1257
      5 C          60.4281   90.1875    8.4413 C.3     1  UNL1        0.1637
      6 O          59.5521   88.9773    8.3064 O.3     1  UNL1       -0.3502
      7 C          59.7134   87.8254    9.2536 C.3     1  UNL1        0.1622
      8 C          60.7505   87.8838   10.3358 C.3     1  UNL1        0.1096
      9 C          66.1673   93.9931   12.0921 C.3     1  UNL1        0.0311
     10 C          65.2914   92.7829   11.9572 C.ar    1  UNL1       -0.0203
     11 C          64.7139   92.4201   10.6212 C.ar    1  UNL1       -0.0040
     12 C          63.8380   91.2099   10.4864 C.ar    1  UNL1        0.0058
     13 C          63.5395   90.3625   11.6875 C.ar    1  UNL1        0.0729
     14 C          64.1169   90.7253   13.0235 C.ar    1  UNL1        0.1069
     15 C          64.9929   91.9355   13.1584 C.ar    1  UNL1        0.0168
     16 N          63.8184   89.8779   14.2247 N.ar    1  UNL1       -0.1477
     17 N          64.5230   88.6098   14.6062 N.ar    1  UNL1       -0.1447
     18 C          63.9030   88.0980   15.8726 C.ar    1  UNL1        0.1446
     19 C          62.8153   89.0498   16.2738 C.ar    1  UNL1        0.1446
     20 N          62.7631   90.1499   15.2554 N.ar    1  UNL1       -0.1447
     21 C          60.9118   86.7319   11.2830 C.3     1  UNL1        0.0488
     22 C          61.8242   85.5943   10.9319 C.ar    1  UNL1       -0.0189
     23 C          62.5757   85.6087    9.6339 C.ar    1  UNL1       -0.0044
     24 C          63.4881   84.4710    9.2829 C.ar    1  UNL1       -0.0030
     25 C          63.6491   83.3190   10.2299 C.ar    1  UNL1       -0.0025
     26 C          64.5615   82.1813    9.8789 C.3     1  UNL1        0.0327
     27 C          62.8975   83.3046   11.5279 C.ar    1  UNL1        0.0986
     28 C          61.9851   84.4423   11.8790 C.ar    1  UNL1        0.0164
     29 N          63.0584   82.1525   12.4750 N.ar    1  UNL1       -0.1481
     30 N          64.2143   81.9303   13.4048 N.ar    1  UNL1       -0.1447
     31 C          63.9619   80.6609   14.1630 C.ar    1  UNL1        0.1446
     32 C          62.6499   80.0985   13.7018 C.ar    1  UNL1        0.1446
     33 N          62.0916   81.0204   12.6586 N.ar    1  UNL1       -0.1447
@<TRIPOS>BOND
     1     9    10    1
     2    10    11   ar
     3    11    12   ar
     4    12    13   ar
     5    13     1    1
     6     1     2    2
     7     1     3   am
     8     3     4    1
     9     4     5    1
    10     5     6    1
    11     6     7    1
    12     7     8    1
    13     8    21    1
    14    21    22    1
    15    22    23   ar
    16    23    24   ar
    17    24    25   ar
    18    25    26    1
    19    25    27   ar
    20    27    29    1
    21    29    30   ar
    22    30    31   ar
    23    31    32   ar
    24    32    33   ar
    25    27    28   ar
    26    13    14   ar
    27    14    16    1
    28    16    17   ar
    29    17    18   ar
    30    18    19   ar
    31    19    20   ar
    32    14    15   ar
    33    15    10   ar
    34     8     3    1
    35    28    22   ar
    36    20    16   ar
    37    33    29   ar
