@<TRIPOS>MOLECULE
*****
 41 45 0 0 0
SMALL
GASTEIGER

@<TRIPOS>ATOM
      1 N          64.2117   90.5077   13.2274 N.am    1  UNL1       -0.2770
      2 C          63.0521   89.9701   12.4425 C.2     1  UNL1        0.2252
      3 O          62.1202   88.9747   13.0677 O.2     1  UNL1       -0.2749
      4 C          62.8244   90.4278   11.0323 C.3     1  UNL1        0.0735
      5 C          62.1975   90.5551    9.6756 C.3     1  UNL1        0.0094
      6 C          63.7563   91.4231   10.4071 C.3     1  UNL1        0.0153
      7 C          64.9159   91.9608   11.1921 C.3     1  UNL1        0.0452
      8 C          65.1436   91.5031   12.6022 C.3     1  UNL1        0.1018
      9 C          65.8478   92.9561   10.5669 C.ar    1  UNL1       -0.0197
     10 C          67.1528   92.4993    9.9853 C.ar    1  UNL1       -0.0042
     11 C          68.0847   93.4946    9.3601 C.ar    1  UNL1        0.0005
     12 C          67.7116   94.9468    9.3165 C.ar    1  UNL1        0.0114
     13 C          66.4066   95.4036    9.8980 C.ar    1  UNL1        0.0574
     14 CL         66.0334   96.8559    9.8544 Cl      1  UNL1       -0.0823
     15 C          65.4747   94.4083   10.5232 C.ar    1  UNL1        0.0072
     16 C          66.3032   92.0407   13.3873 C.ar    1  UNL1       -0.0039
     17 C          66.1652   93.3301   14.1412 C.ar    1  UNL1       -0.0018
     18 C          67.3247   93.8678   14.9262 C.ar    1  UNL1        0.0111
     19 C          68.6224   93.1161   14.9574 C.ar    1  UNL1        0.0577
     20 CL         69.7820   93.6538   15.7424 Cl      1  UNL1       -0.0822
     21 C          68.7605   91.8267   14.2035 C.ar    1  UNL1        0.0111
     22 C          67.6009   91.2890   13.4184 C.ar    1  UNL1       -0.0018
     23 C          64.4395   90.0501   14.6377 C.3     1  UNL1        0.0991
     24 C          64.1153   90.9620   15.7837 C.3     1  UNL1        0.0200
     25 C          64.5401   92.0060   16.7734 C.3     1  UNL1        0.0018
     26 C          63.1290   91.4973   16.7790 C.3     1  UNL1        0.0018
     27 C          64.9913   88.6806   14.9019 C.3     1  UNL1        0.1703
     28 S          64.1362   87.6427   15.5665 S.O2    1  UNL1       -0.0115
     29 O          63.3089   88.7255   16.1932 O.2     1  UNL1       -0.1730
     30 O          64.9635   86.5598   14.9397 O.2     1  UNL1       -0.1730
     31 C          63.7295   85.5894   15.2220 C.3     1  UNL1        0.0236
     32 C          63.2811   86.6048   16.2310 C.3     1  UNL1        0.1108
     33 C          62.8328   87.6202   17.2399 C.3     1  UNL1        0.0236
     34 C          62.4261   85.5669   16.8955 C.3     1  UNL1        0.0236
     35 C          61.6748   89.4767   11.1862 C.3     1  UNL1        0.0349
     36 C          61.4414   88.4094   10.1584 C.ar    1  UNL1       -0.0217
     37 C          62.4481   87.3127    9.9741 C.ar    1  UNL1       -0.0043
     38 C          62.2148   86.2455    8.9462 C.ar    1  UNL1       -0.0003
     39 C          60.9747   86.2749    8.1027 C.ar    1  UNL1       -0.0000
     40 C          59.9681   87.3715    8.2871 C.ar    1  UNL1       -0.0003
     41 C          60.2013   88.4388    9.3149 C.ar    1  UNL1       -0.0043
@<TRIPOS>BOND
     1    31    32    1
     2    32    33    1
     3    32    34    1
     4    32    28    1
     5    28    29    2
     6    28    30    2
     7    28    27    1
     8    23    27    1
     9    23    24    1
    10    24    25    1
    11    25    26    1
    12    23     1    1
    13     1     2   am
    14     2     3    2
    15     2     4    1
    16     4     5    1
    17     4    35    1
    18    35    36    1
    19    36    37   ar
    20    37    38   ar
    21    38    39   ar
    22    39    40   ar
    23    40    41   ar
    24     4     6    1
    25     6     7    1
    26     7     9    1
    27     9    10   ar
    28    10    11   ar
    29    11    12   ar
    30    12    13   ar
    31    13    14    1
    32    13    15   ar
    33     7     8    1
    34     8    16    1
    35    16    17   ar
    36    17    18   ar
    37    18    19   ar
    38    19    20    1
    39    19    21   ar
    40    21    22   ar
    41    26    24    1
    42     8     1    1
    43    22    16   ar
    44    41    36   ar
    45    15     9   ar
