@<TRIPOS>MOLECULE
*****
 38 41 0 0 0
SMALL
GASTEIGER

@<TRIPOS>ATOM
      1 N          64.5134   92.1687   12.1128 N.am    1  UNL1       -0.2733
      2 C          65.1217   93.1200   11.1254 C.2     1  UNL1        0.2462
      3 O          64.5538   93.2290    9.7413 O.2     1  UNL1       -0.2730
      4 C          66.2979   93.9622   11.5220 C.3     1  UNL1        0.1759
      5 N          66.8657   93.8531   12.9060 N.am    1  UNL1       -0.2951
      6 C          66.2575   92.9019   13.8935 C.2     1  UNL1        0.2390
      7 O          66.8253   92.7929   15.2775 O.2     1  UNL1       -0.2734
      8 C          65.0813   92.0596   13.4969 C.3     1  UNL1        0.1314
      9 C          63.9051   91.2175   13.1003 C.3     1  UNL1        0.0445
     10 C          63.2968   90.2662   14.0878 C.3     1  UNL1        0.0745
     11 N          63.8647   90.1572   15.4718 N.3     1  UNL1       -0.2688
     12 C          65.0409   90.9994   15.8684 C.3     1  UNL1        0.0745
     13 C          65.6491   91.9506   14.8810 C.3     1  UNL1        0.0445
     14 H          67.6377   94.4059   13.1663 H       1  UNL1        0.1499
     15 C          66.9062   94.9135   10.5345 C.3     1  UNL1        0.1372
     16 O          66.8546   96.3912   10.7870 O.3     1  UNL1       -0.3823
     17 H          66.3971   96.5601   11.6254 H       1  UNL1        0.2104
     18 C          67.5661   94.3870    9.2946 C.3     1  UNL1        0.0291
     19 C          67.3967   95.1089    7.9907 C.3     1  UNL1        0.0026
     20 C          68.3954   93.1388    9.3586 C.3     1  UNL1        0.0026
     21 C          63.3372   91.3265   11.7162 C.3     1  UNL1        0.0938
     22 C          63.4027   90.4824   10.4780 C.3     1  UNL1        0.0215
     23 C          62.3386   88.2009   11.1204 C.3     1  UNL1        0.0001
     24 C          62.3743   89.4162   10.2419 C.3     1  UNL1        0.0018
     25 C          63.2564   89.2059   16.4593 C.3     1  UNL1        0.0992
     26 C          63.3833   87.7259   16.2510 C.ar    1  UNL1       -0.0059
     27 C          64.2813   87.1944   15.1735 C.ar    1  UNL1        0.0002
     28 C          64.4083   85.7143   14.9652 C.ar    1  UNL1        0.0372
     29 C          63.6373   84.7658   15.8346 C.ar    1  UNL1        0.1453
     30 C          62.7393   85.2973   16.9121 C.ar    1  UNL1        0.0372
     31 C          62.6123   86.7773   17.1204 C.ar    1  UNL1        0.0002
     32 O          63.7642   83.2858   15.6263 O.3     1  UNL1       -0.4535
     33 C          63.4946   82.6926   14.2752 C.ar    1  UNL1        0.1453
     34 C          64.3625   83.0599   13.1082 C.ar    1  UNL1        0.0375
     35 C          64.0929   82.4667   11.7571 C.ar    1  UNL1        0.0031
     36 C          62.9555   81.5063   11.5730 C.ar    1  UNL1        0.0002
     37 C          62.0876   81.1391   12.7400 C.ar    1  UNL1        0.0031
     38 C          62.3571   81.7322   14.0911 C.ar    1  UNL1        0.0375
@<TRIPOS>BOND
     1    23    24    1
     2    24    22    1
     3    22    21    1
     4    21     1    1
     5     1     2   am
     6     2     3    2
     7     2     4    1
     8     4    15    1
     9    15    16    1
    10    15    18    1
    11    18    19    1
    12    18    20    1
    13     4     5    1
    14     5     6   am
    15     6     7    2
    16     6     8    1
    17     8     9    1
    18     9    10    1
    19    10    11    1
    20    11    25    1
    21    25    26    1
    22    26    27   ar
    23    27    28   ar
    24    28    29   ar
    25    29    32    1
    26    32    33    1
    27    33    34   ar
    28    34    35   ar
    29    35    36   ar
    30    36    37   ar
    31    37    38   ar
    32    29    30   ar
    33    30    31   ar
    34    11    12    1
    35    12    13    1
    36     8     1    1
    37    31    26   ar
    38    13     8    1
    39    38    33   ar
    40    16    17    1
    41     5    14    1
@<TRIPOS>MOLECULE
*****
 38 41 0 0 0
SMALL
GASTEIGER

@<TRIPOS>ATOM
      1 N          63.3861   85.1341   12.8807 N.am    1  UNL1       -0.2733
      2 C          63.3431   83.6374   12.7902 C.2     1  UNL1        0.2462
      3 O          63.1014   82.9727   11.4674 O.2     1  UNL1       -0.2730
      4 C          63.5417   82.8055   14.0224 C.3     1  UNL1        0.1759
      5 N          63.7834   83.4702   15.3452 N.am    1  UNL1       -0.2951
      6 C          63.8264   84.9669   15.4358 C.2     1  UNL1        0.2390
      7 O          64.0681   85.6316   16.7585 O.2     1  UNL1       -0.2734
      8 C          63.6278   85.7988   14.2035 C.3     1  UNL1        0.1314
      9 C          63.4291   86.6307   12.9713 C.3     1  UNL1        0.0445
     10 C          63.4722   88.1274   13.0618 C.3     1  UNL1        0.0745
     11 N          63.7138   88.7921   14.3846 N.3     1  UNL1       -0.2688
     12 C          63.9125   87.9602   15.6168 C.3     1  UNL1        0.0745
     13 C          63.8695   86.4636   15.5263 C.3     1  UNL1        0.0445
     14 H          63.9138   82.9242   16.1540 H       1  UNL1        0.1499
     15 C          63.4987   81.3088   13.9319 C.3     1  UNL1        0.1372
     16 O          64.6856   80.4972   14.3592 O.3     1  UNL1       -0.3823
     17 H          65.3895   81.0902   14.6655 H       1  UNL1        0.2104
     18 C          62.2689   80.6238   13.4141 C.3     1  UNL1        0.0291
     19 C          60.9296   80.9313   14.0157 C.3     1  UNL1        0.0026
     20 C          62.3782   79.6314   12.2947 C.3     1  UNL1        0.0026
     21 C          63.1875   85.9660   11.6485 C.3     1  UNL1        0.0938
     22 C          61.8783   85.9230   10.9175 C.3     1  UNL1        0.0215
     23 C          62.8171   85.4269    8.5464 C.3     1  UNL1        0.0001
     24 C          61.8403   86.1399    9.4338 C.3     1  UNL1        0.0018
     25 C          63.7569   90.2888   14.4751 C.3     1  UNL1        0.0992
     26 C          64.6806   91.0676   13.5863 C.ar    1  UNL1       -0.0059
     27 C          64.2532   91.4317   12.1954 C.ar    1  UNL1        0.0002
     28 C          65.1770   92.2106   11.3065 C.ar    1  UNL1        0.0372
     29 C          66.5282   92.6254   11.8087 C.ar    1  UNL1        0.1453
     30 C          66.9556   92.2613   13.1997 C.ar    1  UNL1        0.0372
     31 C          66.0319   91.4825   14.0885 C.ar    1  UNL1        0.0002
     32 O          67.4520   93.4043   10.9199 O.3     1  UNL1       -0.4535
     33 C          66.9248   94.5543   10.1140 C.ar    1  UNL1        0.1453
     34 C          67.4211   94.7810    8.7168 C.ar    1  UNL1        0.0375
     35 C          66.8939   95.9310    7.9109 C.ar    1  UNL1        0.0031
     36 C          65.8704   96.8544    8.5022 C.ar    1  UNL1        0.0002
     37 C          65.3740   96.6278    9.8995 C.ar    1  UNL1        0.0031
     38 C          65.9012   95.4777   10.7054 C.ar    1  UNL1        0.0375
@<TRIPOS>BOND
     1    23    24    1
     2    24    22    1
     3    22    21    1
     4    21     1    1
     5     1     2   am
     6     2     3    2
     7     2     4    1
     8     4    15    1
     9    15    16    1
    10    15    18    1
    11    18    19    1
    12    18    20    1
    13     4     5    1
    14     5     6   am
    15     6     7    2
    16     6     8    1
    17     8     9    1
    18     9    10    1
    19    10    11    1
    20    11    25    1
    21    25    26    1
    22    26    27   ar
    23    27    28   ar
    24    28    29   ar
    25    29    32    1
    26    32    33    1
    27    33    34   ar
    28    34    35   ar
    29    35    36   ar
    30    36    37   ar
    31    37    38   ar
    32    29    30   ar
    33    30    31   ar
    34    11    12    1
    35    12    13    1
    36     8     1    1
    37    31    26   ar
    38    13     8    1
    39    38    33   ar
    40    16    17    1
    41     5    14    1
@<TRIPOS>MOLECULE
*****
 38 41 0 0 0
SMALL
GASTEIGER

@<TRIPOS>ATOM
      1 N          63.7892   85.0338   13.9334 N.am    1  UNL1       -0.2733
      2 C          63.6273   83.5724   13.6361 C.2     1  UNL1        0.2462
      3 O          64.1813   82.5487   14.5822 O.2     1  UNL1       -0.2730
      4 C          62.9115   83.1348   12.3927 C.3     1  UNL1        0.1759
      5 N          62.3575   84.1585   11.4465 N.am    1  UNL1       -0.2951
      6 C          62.5193   85.6197   11.7438 C.2     1  UNL1        0.2390
      7 O          61.9654   86.6434   10.7976 O.2     1  UNL1       -0.2734
      8 C          63.2352   86.0574   12.9872 C.3     1  UNL1        0.1314
      9 C          63.9510   86.4950   14.2306 C.3     1  UNL1        0.0445
     10 C          64.1129   87.9563   14.5278 C.3     1  UNL1        0.0745
     11 N          63.5589   88.9800   13.5817 N.3     1  UNL1       -0.2688
     12 C          62.8431   88.5424   12.3383 C.3     1  UNL1        0.0745
     13 C          62.6812   87.0811   12.0411 C.3     1  UNL1        0.0445
     14 H          61.8877   83.8712   10.6305 H       1  UNL1        0.1499
     15 C          62.7496   81.6734   12.0954 C.3     1  UNL1        0.1372
     16 O          63.1392   81.1339   10.7511 O.3     1  UNL1       -0.3823
     17 H          63.4744   81.8564   10.1975 H       1  UNL1        0.2104
     18 C          62.1980   80.7517   13.1424 C.3     1  UNL1        0.0291
     19 C          62.8394   79.4166   13.3793 C.3     1  UNL1        0.0026
     20 C          61.0051   81.1650   13.9524 C.3     1  UNL1        0.0026
     21 C          64.5050   85.4714   15.1767 C.3     1  UNL1        0.0938
     22 C          63.9368   85.1408   16.5250 C.3     1  UNL1        0.0215
     23 C          62.4953   86.7132   18.0082 C.3     1  UNL1        0.0001
     24 C          62.5954   85.6792   16.9261 C.3     1  UNL1        0.0018
     25 C          63.7208   90.4414   13.8789 C.3     1  UNL1        0.0992
     26 C          64.6722   91.2707   13.0684 C.ar    1  UNL1       -0.0059
     27 C          64.3264   91.6450   11.6576 C.ar    1  UNL1        0.0002
     28 C          65.2779   92.4744   10.8471 C.ar    1  UNL1        0.0372
     29 C          66.5751   92.9294   11.4474 C.ar    1  UNL1        0.1453
     30 C          66.9208   92.5551   12.8582 C.ar    1  UNL1        0.0372
     31 C          65.9694   91.7258   13.6687 C.ar    1  UNL1        0.0002
     32 O          67.5265   93.7588   10.6369 O.3     1  UNL1       -0.4535
     33 C          66.9983   94.7899    9.6841 C.ar    1  UNL1        0.1453
     34 C          66.0221   95.8233   10.1627 C.ar    1  UNL1        0.0375
     35 C          65.4940   96.8544    9.2099 C.ar    1  UNL1        0.0031
     36 C          65.9421   96.8522    7.7785 C.ar    1  UNL1        0.0002
     37 C          66.9184   95.8189    7.2997 C.ar    1  UNL1        0.0031
     38 C          67.4465   94.7877    8.2525 C.ar    1  UNL1        0.0375
@<TRIPOS>BOND
     1    23    24    1
     2    24    22    1
     3    22    21    1
     4    21     1    1
     5     1     2   am
     6     2     3    2
     7     2     4    1
     8     4    15    1
     9    15    16    1
    10    15    18    1
    11    18    19    1
    12    18    20    1
    13     4     5    1
    14     5     6   am
    15     6     7    2
    16     6     8    1
    17     8     9    1
    18     9    10    1
    19    10    11    1
    20    11    25    1
    21    25    26    1
    22    26    27   ar
    23    27    28   ar
    24    28    29   ar
    25    29    32    1
    26    32    33    1
    27    33    34   ar
    28    34    35   ar
    29    35    36   ar
    30    36    37   ar
    31    37    38   ar
    32    29    30   ar
    33    30    31   ar
    34    11    12    1
    35    12    13    1
    36     8     1    1
    37    31    26   ar
    38    13     8    1
    39    38    33   ar
    40    16    17    1
    41     5    14    1
@<TRIPOS>MOLECULE
*****
 38 41 0 0 0
SMALL
GASTEIGER

@<TRIPOS>ATOM
      1 N          62.0509   87.2816   11.1457 N.am    1  UNL1       -0.2733
      2 C          62.8874   87.2213   12.3894 C.2     1  UNL1        0.2462
      3 O          63.2979   85.8934   12.9535 O.2     1  UNL1       -0.2730
      4 C          63.3134   88.4889   13.0689 C.3     1  UNL1        0.1759
      5 N          62.9030   89.8168   12.5048 N.am    1  UNL1       -0.2951
      6 C          62.0665   89.8771   11.2612 C.2     1  UNL1        0.2390
      7 O          61.6561   91.2050   10.6970 O.2     1  UNL1       -0.2734
      8 C          61.6405   88.6095   10.5816 C.3     1  UNL1        0.1314
      9 C          61.2145   87.3420    9.9021 C.3     1  UNL1        0.0445
     10 C          60.3780   87.4023    8.6584 C.3     1  UNL1        0.0745
     11 N          59.9676   88.7302    8.0943 N.3     1  UNL1       -0.2688
     12 C          60.3936   89.9977    8.7738 C.3     1  UNL1        0.0745
     13 C          61.2300   89.9374   10.0174 C.3     1  UNL1        0.0445
     14 H          63.1826   90.6487   12.9508 H       1  UNL1        0.1499
     15 C          64.1499   88.4286   14.3126 C.3     1  UNL1        0.1372
     16 O          64.7908   87.1361   14.7235 O.3     1  UNL1       -0.3823
     17 H          64.5657   86.4450   14.0811 H       1  UNL1        0.2104
     18 C          64.3455   89.6607   15.1454 C.3     1  UNL1        0.0291
     19 C          63.4811   89.8981   16.3480 C.3     1  UNL1        0.0026
     20 C          65.4055   90.6555   14.7755 C.3     1  UNL1        0.0026
     21 C          61.6250   86.0141   10.4662 C.3     1  UNL1        0.0938
     22 C          62.3363   84.7276   10.7644 C.3     1  UNL1        0.0215
     23 C          64.2569   83.0579   10.2412 C.3     1  UNL1        0.0001
     24 C          63.4232   84.2425    9.8516 C.3     1  UNL1        0.0018
     25 C          59.1311   88.7905    6.8506 C.3     1  UNL1        0.0992
     26 C          59.2367   89.9718    5.9323 C.ar    1  UNL1       -0.0059
     27 C          60.5731   90.3818    5.3883 C.ar    1  UNL1        0.0002
     28 C          60.6786   91.5631    4.4699 C.ar    1  UNL1        0.0372
     29 C          59.4478   92.3344    4.0956 C.ar    1  UNL1        0.1453
     30 C          58.1114   91.9244    4.6396 C.ar    1  UNL1        0.0372
     31 C          58.0058   90.7431    5.5579 C.ar    1  UNL1        0.0002
     32 O          59.5533   93.5157    3.1773 O.3     1  UNL1       -0.4535
     33 C          60.3385   93.4078    1.9037 C.ar    1  UNL1        0.1453
     34 C          59.8366   92.5453    0.7840 C.ar    1  UNL1        0.0375
     35 C          60.6218   92.4374   -0.4896 C.ar    1  UNL1        0.0031
     36 C          61.9089   93.1922   -0.6433 C.ar    1  UNL1        0.0002
     37 C          62.4109   94.0548    0.4765 C.ar    1  UNL1        0.0031
     38 C          61.6257   94.1626    1.7500 C.ar    1  UNL1        0.0375
@<TRIPOS>BOND
     1    23    24    1
     2    24    22    1
     3    22    21    1
     4    21     1    1
     5     1     2   am
     6     2     3    2
     7     2     4    1
     8     4    15    1
     9    15    16    1
    10    15    18    1
    11    18    19    1
    12    18    20    1
    13     4     5    1
    14     5     6   am
    15     6     7    2
    16     6     8    1
    17     8     9    1
    18     9    10    1
    19    10    11    1
    20    11    25    1
    21    25    26    1
    22    26    27   ar
    23    27    28   ar
    24    28    29   ar
    25    29    32    1
    26    32    33    1
    27    33    34   ar
    28    34    35   ar
    29    35    36   ar
    30    36    37   ar
    31    37    38   ar
    32    29    30   ar
    33    30    31   ar
    34    11    12    1
    35    12    13    1
    36     8     1    1
    37    31    26   ar
    38    13     8    1
    39    38    33   ar
    40    16    17    1
    41     5    14    1
@<TRIPOS>MOLECULE
*****
 38 41 0 0 0
SMALL
GASTEIGER

@<TRIPOS>ATOM
      1 N          63.0185   85.7651   12.0508 N.am    1  UNL1       -0.2733
      2 C          62.8769   84.3946   11.4577 C.2     1  UNL1        0.2462
      3 O          62.3279   84.2302   10.0715 O.2     1  UNL1       -0.2730
      4 C          63.2843   83.1884   12.2509 C.3     1  UNL1        0.1759
      5 N          63.8333   83.3527   13.6371 N.am    1  UNL1       -0.2951
      6 C          63.9749   84.7232   14.2302 C.2     1  UNL1        0.2390
      7 O          64.5239   84.8875   15.6164 O.2     1  UNL1       -0.2734
      8 C          63.5675   85.9294   13.4370 C.3     1  UNL1        0.1314
      9 C          63.1600   87.1356   12.6438 C.3     1  UNL1        0.0445
     10 C          63.3016   88.5060   13.2368 C.3     1  UNL1        0.0745
     11 N          63.8506   88.6704   14.6230 N.3     1  UNL1       -0.2688
     12 C          64.2581   87.4642   15.4162 C.3     1  UNL1        0.0745
     13 C          64.1165   86.0938   14.8232 C.3     1  UNL1        0.0445
     14 H          64.1007   82.5611   14.1577 H       1  UNL1        0.1499
     15 C          63.1427   81.8179   11.6579 C.3     1  UNL1        0.1372
     16 O          63.6530   81.5429   10.2744 O.3     1  UNL1       -0.3823
     17 H          64.0422   82.3517    9.9067 H       1  UNL1        0.2104
     18 C          62.4909   80.7223   12.4484 C.3     1  UNL1        0.0291
     19 C          62.6532   79.2928   12.0240 C.3     1  UNL1        0.0026
     20 C          61.6768   81.0563   13.6632 C.3     1  UNL1        0.0026
     21 C          62.6110   86.9713   11.2576 C.3     1  UNL1        0.0938
     22 C          61.2347   87.0503   10.6664 C.3     1  UNL1        0.0215
     23 C          59.8053   86.9023    8.5020 C.3     1  UNL1        0.0001
     24 C          61.0621   87.3267    9.2023 C.3     1  UNL1        0.0018
     25 C          63.9922   90.0409   15.2161 C.3     1  UNL1        0.0992
     26 C          64.6872   91.1237   14.4449 C.ar    1  UNL1       -0.0059
     27 C          64.3217   91.3769   13.0123 C.ar    1  UNL1        0.0002
     28 C          65.0167   92.4597   12.2412 C.ar    1  UNL1        0.0372
     29 C          66.0771   93.2892   12.9026 C.ar    1  UNL1        0.1453
     30 C          66.4425   93.0359   14.3352 C.ar    1  UNL1        0.0372
     31 C          65.7476   91.9532   15.1063 C.ar    1  UNL1        0.0002
     32 O          66.7720   94.3719   12.1315 O.3     1  UNL1       -0.4535
     33 C          67.2475   94.1099   10.7332 C.ar    1  UNL1        0.1453
     34 C          67.0513   95.1470    9.6675 C.ar    1  UNL1        0.0375
     35 C          67.5269   94.8850    8.2692 C.ar    1  UNL1        0.0031
     36 C          68.1987   93.5857    7.9366 C.ar    1  UNL1        0.0002
     37 C          68.3949   92.5485    9.0024 C.ar    1  UNL1        0.0031
     38 C          67.9193   92.8105   10.4006 C.ar    1  UNL1        0.0375
@<TRIPOS>BOND
     1    23    24    1
     2    24    22    1
     3    22    21    1
     4    21     1    1
     5     1     2   am
     6     2     3    2
     7     2     4    1
     8     4    15    1
     9    15    16    1
    10    15    18    1
    11    18    19    1
    12    18    20    1
    13     4     5    1
    14     5     6   am
    15     6     7    2
    16     6     8    1
    17     8     9    1
    18     9    10    1
    19    10    11    1
    20    11    25    1
    21    25    26    1
    22    26    27   ar
    23    27    28   ar
    24    28    29   ar
    25    29    32    1
    26    32    33    1
    27    33    34   ar
    28    34    35   ar
    29    35    36   ar
    30    36    37   ar
    31    37    38   ar
    32    29    30   ar
    33    30    31   ar
    34    11    12    1
    35    12    13    1
    36     8     1    1
    37    31    26   ar
    38    13     8    1
    39    38    33   ar
    40    16    17    1
    41     5    14    1
@<TRIPOS>MOLECULE
*****
 38 41 0 0 0
SMALL
GASTEIGER

@<TRIPOS>ATOM
      1 N          61.1141   93.3638    2.0060 N.am    1  UNL1       -0.2733
      2 C          62.0685   94.0298    1.0595 C.2     1  UNL1        0.2462
      3 O          61.5733   95.0815    0.1116 O.2     1  UNL1       -0.2730
      4 C          63.5180   93.6439    1.0610 C.3     1  UNL1        0.1759
      5 N          64.0132   92.5921    2.0089 N.am    1  UNL1       -0.2951
      6 C          63.0589   91.9262    2.9553 C.2     1  UNL1        0.2390
      7 O          63.5540   90.8744    3.9032 O.2     1  UNL1       -0.2734
      8 C          61.6093   92.3120    2.9539 C.3     1  UNL1        0.1314
      9 C          60.1598   92.6979    2.9524 C.3     1  UNL1        0.0445
     10 C          59.2055   92.0320    3.8988 C.3     1  UNL1        0.0745
     11 N          59.7007   90.9802    4.8468 N.3     1  UNL1       -0.2688
     12 C          61.1502   90.5943    4.8482 C.3     1  UNL1        0.0745
     13 C          62.1045   91.2603    3.9018 C.3     1  UNL1        0.0445
     14 H          64.9645   92.3389    2.0098 H       1  UNL1        0.1499
     15 C          64.4724   94.3099    0.1145 C.3     1  UNL1        0.1372
     16 O          64.7860   93.6722   -1.2065 O.3     1  UNL1       -0.3823
     17 H          64.2921   92.8416   -1.2900 H       1  UNL1        0.2104
     18 C          65.1131   95.6133    0.4891 C.3     1  UNL1        0.0291
     19 C          65.0668   96.0907    1.9103 C.3     1  UNL1        0.0026
     20 C          65.8001   96.4395   -0.5576 C.3     1  UNL1        0.0026
     21 C          59.6646   93.7497    2.0045 C.3     1  UNL1        0.0938
     22 C          58.9260   93.8858    0.7060 C.3     1  UNL1        0.0215
     23 C          59.1693   92.9535   -1.7068 C.3     1  UNL1        0.0001
     24 C          58.8754   92.7331   -0.2524 C.3     1  UNL1        0.0018
     25 C          58.7463   90.3142    5.7932 C.3     1  UNL1        0.0992
     26 C          59.2711   89.5245    6.9555 C.ar    1  UNL1       -0.0059
     27 C          60.1137   90.1959    7.9991 C.ar    1  UNL1        0.0002
     28 C          60.6386   89.4061    9.1614 C.ar    1  UNL1        0.0372
     29 C          60.3208   87.9449    9.2800 C.ar    1  UNL1        0.1453
     30 C          59.4782   87.2736    8.2363 C.ar    1  UNL1        0.0372
     31 C          58.9534   88.0633    7.0740 C.ar    1  UNL1        0.0002
     32 O          60.8456   87.1552   10.4422 O.3     1  UNL1       -0.4535
     33 C          61.8121   86.0317   10.2103 C.ar    1  UNL1        0.1453
     34 C          62.4282   85.8399    8.8563 C.ar    1  UNL1        0.0375
     35 C          63.3947   84.7164    8.6244 C.ar    1  UNL1        0.0031
     36 C          63.7451   83.7848    9.7466 C.ar    1  UNL1        0.0002
     37 C          63.1289   83.9767   11.1007 C.ar    1  UNL1        0.0031
     38 C          62.1625   85.1001   11.3326 C.ar    1  UNL1        0.0375
@<TRIPOS>BOND
     1    23    24    1
     2    24    22    1
     3    22    21    1
     4    21     1    1
     5     1     2   am
     6     2     3    2
     7     2     4    1
     8     4    15    1
     9    15    16    1
    10    15    18    1
    11    18    19    1
    12    18    20    1
    13     4     5    1
    14     5     6   am
    15     6     7    2
    16     6     8    1
    17     8     9    1
    18     9    10    1
    19    10    11    1
    20    11    25    1
    21    25    26    1
    22    26    27   ar
    23    27    28   ar
    24    28    29   ar
    25    29    32    1
    26    32    33    1
    27    33    34   ar
    28    34    35   ar
    29    35    36   ar
    30    36    37   ar
    31    37    38   ar
    32    29    30   ar
    33    30    31   ar
    34    11    12    1
    35    12    13    1
    36     8     1    1
    37    31    26   ar
    38    13     8    1
    39    38    33   ar
    40    16    17    1
    41     5    14    1
@<TRIPOS>MOLECULE
*****
 38 41 0 0 0
SMALL
GASTEIGER

@<TRIPOS>ATOM
      1 N          61.7927   85.6471    9.4655 N.am    1  UNL1       -0.2733
      2 C          62.6849   84.9583   10.4553 C.2     1  UNL1        0.2462
      3 O          63.3632   83.6725   10.0857 O.2     1  UNL1       -0.2730
      4 C          62.8987   85.5553   11.8146 C.3     1  UNL1        0.1759
      5 N          62.2204   86.8411   12.1843 N.am    1  UNL1       -0.2951
      6 C          61.3282   87.5299   11.1945 C.2     1  UNL1        0.2390
      7 O          60.6499   88.8157   11.5641 O.2     1  UNL1       -0.2734
      8 C          61.1144   86.9329    9.8351 C.3     1  UNL1        0.1314
      9 C          60.9006   86.3359    8.4758 C.3     1  UNL1        0.0445
     10 C          60.0084   87.0247    7.4860 C.3     1  UNL1        0.0745
     11 N          59.3301   88.3105    7.8557 N.3     1  UNL1       -0.2688
     12 C          59.5439   88.9075    9.2150 C.3     1  UNL1        0.0745
     13 C          60.4361   88.2187   10.2047 C.3     1  UNL1        0.0445
     14 H          62.3607   87.2329   13.0765 H       1  UNL1        0.1499
     15 C          63.7909   84.8665   12.8044 C.3     1  UNL1        0.1372
     16 O          64.7477   83.8079   12.3419 O.3     1  UNL1       -0.3823
     17 H          64.6627   83.6921   11.3826 H       1  UNL1        0.2104
     18 C          63.7262   85.2362   14.2567 C.3     1  UNL1        0.0291
     19 C          62.8932   84.4218   15.2015 C.3     1  UNL1        0.0026
     20 C          64.4944   86.4204   14.7641 C.3     1  UNL1        0.0026
     21 C          61.5789   85.0501    8.1061 C.3     1  UNL1        0.0938
     22 C          62.7561   84.7371    7.2309 C.3     1  UNL1        0.0215
     23 C          61.4437   83.8993    5.1511 C.3     1  UNL1        0.0001
     24 C          62.5869   84.6699    5.7420 C.3     1  UNL1        0.0018
     25 C          58.4379   88.9993    6.8659 C.3     1  UNL1        0.0992
     26 C          58.9972   90.0571    5.9613 C.ar    1  UNL1       -0.0059
     27 C          60.4673   90.0905    5.6656 C.ar    1  UNL1        0.0002
     28 C          61.0265   91.1484    4.7610 C.ar    1  UNL1        0.0372
     29 C          60.1156   92.1729    4.1522 C.ar    1  UNL1        0.1453
     30 C          58.6454   92.1395    4.4480 C.ar    1  UNL1        0.0372
     31 C          58.0862   91.0816    5.3525 C.ar    1  UNL1        0.0002
     32 O          60.6748   93.2307    3.2477 O.3     1  UNL1       -0.4535
     33 C          60.5270   93.1008    1.7606 C.ar    1  UNL1        0.1453
     34 C          59.2049   93.3830    1.1108 C.ar    1  UNL1        0.0375
     35 C          59.0571   93.2531   -0.3762 C.ar    1  UNL1        0.0031
     36 C          60.2315   92.8410   -1.2134 C.ar    1  UNL1        0.0002
     37 C          61.5537   92.5587   -0.5636 C.ar    1  UNL1        0.0031
     38 C          61.7015   92.6886    0.9234 C.ar    1  UNL1        0.0375
@<TRIPOS>BOND
     1    23    24    1
     2    24    22    1
     3    22    21    1
     4    21     1    1
     5     1     2   am
     6     2     3    2
     7     2     4    1
     8     4    15    1
     9    15    16    1
    10    15    18    1
    11    18    19    1
    12    18    20    1
    13     4     5    1
    14     5     6   am
    15     6     7    2
    16     6     8    1
    17     8     9    1
    18     9    10    1
    19    10    11    1
    20    11    25    1
    21    25    26    1
    22    26    27   ar
    23    27    28   ar
    24    28    29   ar
    25    29    32    1
    26    32    33    1
    27    33    34   ar
    28    34    35   ar
    29    35    36   ar
    30    36    37   ar
    31    37    38   ar
    32    29    30   ar
    33    30    31   ar
    34    11    12    1
    35    12    13    1
    36     8     1    1
    37    31    26   ar
    38    13     8    1
    39    38    33   ar
    40    16    17    1
    41     5    14    1
@<TRIPOS>MOLECULE
*****
 38 41 0 0 0
SMALL
GASTEIGER

@<TRIPOS>ATOM
      1 N          63.5363   85.0722   13.6966 N.am    1  UNL1       -0.2733
      2 C          63.6326   83.6452   14.1490 C.2     1  UNL1        0.2462
      3 O          64.2402   83.3203   15.4814 O.2     1  UNL1       -0.2730
      4 C          63.1212   82.5433   13.2691 C.3     1  UNL1        0.1759
      5 N          62.5136   82.8683   11.9368 N.am    1  UNL1       -0.2951
      6 C          62.4173   84.2952   11.4843 C.2     1  UNL1        0.2390
      7 O          61.8096   84.6201   10.1520 O.2     1  UNL1       -0.2734
      8 C          62.9287   85.3971   12.3642 C.3     1  UNL1        0.1314
      9 C          63.4401   86.4990   13.2441 C.3     1  UNL1        0.0445
     10 C          63.3438   87.9259   12.7917 C.3     1  UNL1        0.0745
     11 N          62.7362   88.2509   11.4593 N.3     1  UNL1       -0.2688
     12 C          62.2248   87.1490   10.5794 C.3     1  UNL1        0.0745
     13 C          62.3210   85.7221   11.0319 C.3     1  UNL1        0.0445
     14 H          62.1779   82.1451   11.3593 H       1  UNL1        0.1499
     15 C          63.2174   81.1164   13.7216 C.3     1  UNL1        0.1372
     16 O          64.5024   80.5964   14.2946 O.3     1  UNL1       -0.3823
     17 H          65.1639   81.3058   14.3014 H       1  UNL1        0.2104
     18 C          62.0288   80.2095   13.6009 C.3     1  UNL1        0.0291
     19 C          60.6839   80.6679   14.0817 C.3     1  UNL1        0.0026
     20 C          62.1849   78.8443   12.9995 C.3     1  UNL1        0.0026
     21 C          64.0477   86.1741   14.5765 C.3     1  UNL1        0.0938
     22 C          63.9916   86.0297   16.0685 C.3     1  UNL1        0.0215
     23 C          63.1551   88.3769   16.8037 C.3     1  UNL1        0.0001
     24 C          63.0527   86.8819   16.8697 C.3     1  UNL1        0.0018
     25 C          62.6399   89.6778   11.0069 C.3     1  UNL1        0.0992
     26 C          63.5619   90.7111   11.5831 C.ar    1  UNL1       -0.0059
     27 C          63.7354   90.8161   13.0694 C.ar    1  UNL1        0.0002
     28 C          64.6574   91.8495   13.6457 C.ar    1  UNL1        0.0372
     29 C          65.4059   92.7779   12.7357 C.ar    1  UNL1        0.1453
     30 C          65.2323   92.6729   11.2495 C.ar    1  UNL1        0.0372
     31 C          64.3103   91.6395   10.6732 C.ar    1  UNL1        0.0002
     32 O          66.3278   93.8112   13.3120 O.3     1  UNL1       -0.4535
     33 C          67.3126   93.4276   14.3765 C.ar    1  UNL1        0.1453
     34 C          67.5808   91.9800   14.6636 C.ar    1  UNL1        0.0375
     35 C          68.5656   91.5964   15.7280 C.ar    1  UNL1        0.0031
     36 C          69.2822   92.6604   16.5053 C.ar    1  UNL1        0.0002
     37 C          69.0140   94.1081   16.2183 C.ar    1  UNL1        0.0031
     38 C          68.0292   94.4917   15.1538 C.ar    1  UNL1        0.0375
@<TRIPOS>BOND
     1    23    24    1
     2    24    22    1
     3    22    21    1
     4    21     1    1
     5     1     2   am
     6     2     3    2
     7     2     4    1
     8     4    15    1
     9    15    16    1
    10    15    18    1
    11    18    19    1
    12    18    20    1
    13     4     5    1
    14     5     6   am
    15     6     7    2
    16     6     8    1
    17     8     9    1
    18     9    10    1
    19    10    11    1
    20    11    25    1
    21    25    26    1
    22    26    27   ar
    23    27    28   ar
    24    28    29   ar
    25    29    32    1
    26    32    33    1
    27    33    34   ar
    28    34    35   ar
    29    35    36   ar
    30    36    37   ar
    31    37    38   ar
    32    29    30   ar
    33    30    31   ar
    34    11    12    1
    35    12    13    1
    36     8     1    1
    37    31    26   ar
    38    13     8    1
    39    38    33   ar
    40    16    17    1
    41     5    14    1
@<TRIPOS>MOLECULE
*****
 38 41 0 0 0
SMALL
GASTEIGER

@<TRIPOS>ATOM
      1 N          61.2108   93.6233   -1.5888 N.am    1  UNL1       -0.2733
      2 C          61.9703   93.5737   -2.8815 C.2     1  UNL1        0.2462
      3 O          61.2424   93.7188   -4.1850 O.2     1  UNL1       -0.2730
      4 C          63.4575   93.3790   -2.8705 C.3     1  UNL1        0.1759
      5 N          64.1854   93.2340   -1.5670 N.am    1  UNL1       -0.2951
      6 C          63.4260   93.2835   -0.2744 C.2     1  UNL1        0.2390
      7 O          64.1538   93.1384    1.0291 O.2     1  UNL1       -0.2734
      8 C          61.9386   93.4782   -0.2853 C.3     1  UNL1        0.1314
      9 C          60.4514   93.6728   -0.2962 C.3     1  UNL1        0.0445
     10 C          59.6920   93.7224    0.9963 C.3     1  UNL1        0.0745
     11 N          60.4199   93.5773    2.2999 N.3     1  UNL1       -0.2688
     12 C          61.9071   93.3827    2.3108 C.3     1  UNL1        0.0745
     13 C          62.6665   93.3331    1.0182 C.3     1  UNL1        0.0445
     14 H          65.1615   93.1062   -1.5599 H       1  UNL1        0.1499
     15 C          64.2170   93.3295   -4.1632 C.3     1  UNL1        0.1372
     16 O          64.3828   92.0256   -4.8860 O.3     1  UNL1       -0.3823
     17 H          63.9423   91.3206   -4.3863 H       1  UNL1        0.2104
     18 C          64.8105   94.5837   -4.7329 C.3     1  UNL1        0.0291
     19 C          65.4157   94.5708   -6.1053 C.3     1  UNL1        0.0026
     20 C          64.7989   95.8508   -3.9302 C.3     1  UNL1        0.0026
     21 C          59.7235   93.8179   -1.5998 C.3     1  UNL1        0.0938
     22 C          58.8260   92.7133   -2.0733 C.3     1  UNL1        0.0215
     23 C          57.4231   91.7537   -4.0382 C.3     1  UNL1        0.0001
     24 C          57.9314   92.9295   -3.2577 C.3     1  UNL1        0.0018
     25 C          59.6604   93.6269    3.5925 C.3     1  UNL1        0.0992
     26 C          59.4363   92.3697    4.3794 C.ar    1  UNL1       -0.0059
     27 C          58.0476   91.9805    4.7917 C.ar    1  UNL1        0.0002
     28 C          57.8235   90.7232    5.5786 C.ar    1  UNL1        0.0372
     29 C          58.9880   89.8553    5.9531 C.ar    1  UNL1        0.1453
     30 C          60.3768   90.2445    5.5408 C.ar    1  UNL1        0.0372
     31 C          60.6009   91.5016    4.7540 C.ar    1  UNL1        0.0002
     32 O          58.7639   88.5981    6.7400 O.3     1  UNL1       -0.4535
     33 C          59.7502   88.1860    7.7923 C.ar    1  UNL1        0.1453
     34 C          60.2816   89.2007    8.7607 C.ar    1  UNL1        0.0375
     35 C          61.2680   88.7887    9.8130 C.ar    1  UNL1        0.0031
     36 C          61.7229   87.3618    9.8969 C.ar    1  UNL1        0.0002
     37 C          61.1916   86.3470    8.9284 C.ar    1  UNL1        0.0031
     38 C          60.2052   86.7591    7.8762 C.ar    1  UNL1        0.0375
@<TRIPOS>BOND
     1    23    24    1
     2    24    22    1
     3    22    21    1
     4    21     1    1
     5     1     2   am
     6     2     3    2
     7     2     4    1
     8     4    15    1
     9    15    16    1
    10    15    18    1
    11    18    19    1
    12    18    20    1
    13     4     5    1
    14     5     6   am
    15     6     7    2
    16     6     8    1
    17     8     9    1
    18     9    10    1
    19    10    11    1
    20    11    25    1
    21    25    26    1
    22    26    27   ar
    23    27    28   ar
    24    28    29   ar
    25    29    32    1
    26    32    33    1
    27    33    34   ar
    28    34    35   ar
    29    35    36   ar
    30    36    37   ar
    31    37    38   ar
    32    29    30   ar
    33    30    31   ar
    34    11    12    1
    35    12    13    1
    36     8     1    1
    37    31    26   ar
    38    13     8    1
    39    38    33   ar
    40    16    17    1
    41     5    14    1
