@<TRIPOS>MOLECULE
*****
 17 18 0 0 0
SMALL
GASTEIGER

@<TRIPOS>ATOM
      1 N          62.7766   89.2853   16.1564 N.pl3   1  UNL1       -0.3375
      2 C          63.3115   89.9882   14.9441 C.ar    1  UNL1        0.1567
      3 N          62.7397   89.9162   13.5592 N.ar    1  UNL1       -0.2245
      4 C          63.5869   90.7700   12.6629 C.ar    1  UNL1        0.0893
      5 C          63.5023   91.0789   11.1975 C.ar    1  UNL1        0.0202
      6 C          64.5132   91.9875   10.5631 C.ar    1  UNL1        0.0080
      7 C          65.6086   92.5871   11.3940 C.ar    1  UNL1        0.0334
      8 C          65.6932   92.2783   12.8594 C.ar    1  UNL1        0.0145
      9 C          64.6823   91.3697   13.4938 C.ar    1  UNL1        0.0502
     10 S          64.5121   90.8865   14.9036 S.2     1  UNL1       -0.0520
     11 H          61.9785   88.7138   16.0820 H       1  UNL1        0.1442
     12 H          63.2238   89.3955   17.0266 H       1  UNL1        0.1442
     13 S          66.6196   93.4957   10.7595 S.3     1  UNL1       -0.0144
     14 C          67.5341   92.9713    9.6925 C.3     1  UNL1        0.4477
     15 F          67.0568   94.0422    8.7570 F       1  UNL1       -0.1600
     16 F          68.0114   91.9004   10.6280 F       1  UNL1       -0.1600
     17 F          68.4487   92.4468    8.6254 F       1  UNL1       -0.1600
@<TRIPOS>BOND
     1     1     2    1
     2     2     3   ar
     3     3     4   ar
     4     4     5   ar
     5     5     6   ar
     6     6     7   ar
     7     7    13    1
     8    13    14    1
     9    14    15    1
    10    14    16    1
    11    14    17    1
    12     7     8   ar
    13     8     9   ar
    14     9    10   ar
    15    10     2   ar
    16     9     4   ar
    17     1    11    1
    18     1    12    1
@<TRIPOS>MOLECULE
*****
 17 18 0 0 0
SMALL
GASTEIGER

@<TRIPOS>ATOM
      1 N          63.8765   82.6407   15.2961 N.pl3   1  UNL1       -0.3375
      2 C          63.6335   83.2115   13.9304 C.ar    1  UNL1        0.1567
      3 N          64.2081   82.6960   12.6443 N.ar    1  UNL1       -0.2245
      4 C          63.7030   83.5640   11.5300 C.ar    1  UNL1        0.0893
      5 C          63.9359   83.5324   10.0486 C.ar    1  UNL1        0.0202
      6 C          63.2821   84.5527    9.1647 C.ar    1  UNL1        0.0080
      7 C          62.3954   85.6047    9.7622 C.ar    1  UNL1        0.0334
      8 C          62.1624   85.6364   11.2436 C.ar    1  UNL1        0.0145
      9 C          62.8162   84.6160   12.1276 C.ar    1  UNL1        0.0502
     10 S          62.7733   84.3981   13.6110 S.2     1  UNL1       -0.0520
     11 H          64.4603   81.8554   15.4046 H       1  UNL1        0.1442
     12 H          63.4522   83.0513   16.0839 H       1  UNL1        0.1442
     13 S          61.7416   86.6251    8.8782 S.3     1  UNL1       -0.0144
     14 C          60.4492   86.3022    8.1886 C.3     1  UNL1        0.4477
     15 F          61.2077   85.6350    7.0797 F       1  UNL1       -0.1600
     16 F          59.6908   86.9694    9.2975 F       1  UNL1       -0.1600
     17 F          59.1569   85.9792    7.4989 F       1  UNL1       -0.1600
@<TRIPOS>BOND
     1     1     2    1
     2     2     3   ar
     3     3     4   ar
     4     4     5   ar
     5     5     6   ar
     6     6     7   ar
     7     7    13    1
     8    13    14    1
     9    14    15    1
    10    14    16    1
    11    14    17    1
    12     7     8   ar
    13     8     9   ar
    14     9    10   ar
    15    10     2   ar
    16     9     4   ar
    17     1    11    1
    18     1    12    1
@<TRIPOS>MOLECULE
*****
 17 18 0 0 0
SMALL
GASTEIGER

@<TRIPOS>ATOM
      1 N          64.8913   81.9400   12.5884 N.pl3   1  UNL1       -0.3375
      2 C          64.1506   82.9628   11.7789 C.ar    1  UNL1        0.1567
      3 N          64.3594   83.2544   10.3224 N.ar    1  UNL1       -0.2245
      4 C          63.4090   84.3454    9.9271 C.ar    1  UNL1        0.0893
      5 C          63.1657   85.0398    8.6200 C.ar    1  UNL1        0.0202
      6 C          62.1262   86.1170    8.5251 C.ar    1  UNL1        0.0080
      7 C          61.3300   86.4998    9.7373 C.ar    1  UNL1        0.0334
      8 C          61.5732   85.8054   11.0444 C.ar    1  UNL1        0.0145
      9 C          62.6128   84.7282   11.1393 C.ar    1  UNL1        0.0502
     10 S          63.0711   83.8737   12.2838 S.2     1  UNL1       -0.0520
     11 H          65.5869   81.3868   12.1650 H       1  UNL1        0.1442
     12 H          64.6818   81.8219   13.5431 H       1  UNL1        0.1442
     13 S          60.2904   87.5770    9.6424 S.3     1  UNL1       -0.0144
     14 C          59.6878   87.9227    8.3130 C.3     1  UNL1        0.4477
     15 F          58.9194   86.6345    8.3263 F       1  UNL1       -0.1600
     16 F          60.4562   89.2108    8.2996 F       1  UNL1       -0.1600
     17 F          59.0852   88.2683    6.9835 F       1  UNL1       -0.1600
@<TRIPOS>BOND
     1     1     2    1
     2     2     3   ar
     3     3     4   ar
     4     4     5   ar
     5     5     6   ar
     6     6     7   ar
     7     7    13    1
     8    13    14    1
     9    14    15    1
    10    14    16    1
    11    14    17    1
    12     7     8   ar
    13     8     9   ar
    14     9    10   ar
    15    10     2   ar
    16     9     4   ar
    17     1    11    1
    18     1    12    1
@<TRIPOS>MOLECULE
*****
 17 18 0 0 0
SMALL
GASTEIGER

@<TRIPOS>ATOM
      1 N          61.1729   89.0929    9.7731 N.pl3   1  UNL1       -0.3375
      2 C          62.1473   89.5712   10.8083 C.ar    1  UNL1        0.1567
      3 N          62.5164   88.8509   12.0712 N.ar    1  UNL1       -0.2245
      4 C          63.5208   89.6883   12.8059 C.ar    1  UNL1        0.0893
      5 C          64.2388   89.4835   14.1069 C.ar    1  UNL1        0.0202
      6 C          65.2085   90.5167   14.5990 C.ar    1  UNL1        0.0080
      7 C          65.4601   91.7547   13.7902 C.ar    1  UNL1        0.0334
      8 C          64.7421   91.9594   12.4893 C.ar    1  UNL1        0.0145
      9 C          63.7725   90.9262   11.9971 C.ar    1  UNL1        0.0502
     10 S          62.9236   90.8539   10.7626 S.2     1  UNL1       -0.0520
     11 H          60.7101   88.2323    9.8930 H       1  UNL1        0.1442
     12 H          60.9962   89.6396    8.9736 H       1  UNL1        0.1442
     13 S          66.4298   92.7879   14.2824 S.3     1  UNL1       -0.0144
     14 C          67.5523   92.3891   15.1940 C.3     1  UNL1        0.4477
     15 F          68.2770   91.7753   14.0329 F       1  UNL1       -0.1600
     16 F          66.8276   93.0028   16.3550 F       1  UNL1       -0.1600
     17 F          68.6749   91.9902   16.1055 F       1  UNL1       -0.1600
@<TRIPOS>BOND
     1     1     2    1
     2     2     3   ar
     3     3     4   ar
     4     4     5   ar
     5     5     6   ar
     6     6     7   ar
     7     7    13    1
     8    13    14    1
     9    14    15    1
    10    14    16    1
    11    14    17    1
    12     7     8   ar
    13     8     9   ar
    14     9    10   ar
    15    10     2   ar
    16     9     4   ar
    17     1    11    1
    18     1    12    1
@<TRIPOS>MOLECULE
*****
 17 18 0 0 0
SMALL
GASTEIGER

@<TRIPOS>ATOM
      1 N          60.9147   88.4019    9.2156 N.pl3   1  UNL1       -0.3375
      2 C          61.5585   87.1245    9.6672 C.ar    1  UNL1        0.1567
      3 N          62.4465   86.2439    8.8391 N.ar    1  UNL1       -0.2245
      4 C          62.8642   85.0787    9.6863 C.ar    1  UNL1        0.0893
      5 C          63.7367   83.8923    9.4016 C.ar    1  UNL1        0.0202
      6 C          63.9792   82.8664   10.4686 C.ar    1  UNL1        0.0080
      7 C          63.3492   83.0268   11.8204 C.ar    1  UNL1        0.0334
      8 C          62.4767   84.2132   12.1052 C.ar    1  UNL1        0.0145
      9 C          62.2341   85.2391   11.0381 C.ar    1  UNL1        0.0502
     10 S          61.4272   86.5035   11.0263 S.2     1  UNL1       -0.0520
     11 H          61.0615   88.7298    8.2990 H       1  UNL1        0.1442
     12 H          60.3453   88.9123    9.8357 H       1  UNL1        0.1442
     13 S          63.5917   82.0008   12.8874 S.3     1  UNL1       -0.0144
     14 C          62.4789   81.0942   13.3230 C.3     1  UNL1        0.4477
     15 F          62.6547   80.2794   12.0760 F       1  UNL1       -0.1600
     16 F          62.3032   81.9091   14.5700 F       1  UNL1       -0.1600
     17 F          61.3661   80.1876   13.7586 F       1  UNL1       -0.1600
@<TRIPOS>BOND
     1     1     2    1
     2     2     3   ar
     3     3     4   ar
     4     4     5   ar
     5     5     6   ar
     6     6     7   ar
     7     7    13    1
     8    13    14    1
     9    14    15    1
    10    14    16    1
    11    14    17    1
    12     7     8   ar
    13     8     9   ar
    14     9    10   ar
    15    10     2   ar
    16     9     4   ar
    17     1    11    1
    18     1    12    1
@<TRIPOS>MOLECULE
*****
 17 18 0 0 0
SMALL
GASTEIGER

@<TRIPOS>ATOM
      1 N          60.4923   88.5692   11.5707 N.pl3   1  UNL1       -0.3375
      2 C          61.6860   89.4659   11.7165 C.ar    1  UNL1        0.1567
      3 N          62.4787   89.6814   12.9716 N.ar    1  UNL1       -0.2245
      4 C          63.5791   90.6531   12.6637 C.ar    1  UNL1        0.0893
      5 C          64.6691   91.2371   13.5126 C.ar    1  UNL1        0.0202
      6 C          65.6465   92.2061   12.9163 C.ar    1  UNL1        0.0080
      7 C          65.5339   92.5911   11.4709 C.ar    1  UNL1        0.0334
      8 C          64.4439   92.0071   10.6219 C.ar    1  UNL1        0.0145
      9 C          63.4665   91.0381   11.2183 C.ar    1  UNL1        0.0502
     10 S          62.2965   90.3044   10.6329 S.2     1  UNL1       -0.0520
     11 H          60.1646   88.0561   12.3443 H       1  UNL1        0.1442
     12 H          60.0366   88.4938   10.7013 H       1  UNL1        0.1442
     13 S          66.5114   93.5601   10.8745 S.3     1  UNL1       -0.0144
     14 C          67.3796   93.1387    9.7262 C.3     1  UNL1        0.4477
     15 F          66.8350   94.2664    8.9007 F       1  UNL1       -0.1600
     16 F          67.9241   92.0110   10.5518 F       1  UNL1       -0.1600
     17 F          68.2477   92.7173    8.5778 F       1  UNL1       -0.1600
@<TRIPOS>BOND
     1     1     2    1
     2     2     3   ar
     3     3     4   ar
     4     4     5   ar
     5     5     6   ar
     6     6     7   ar
     7     7    13    1
     8    13    14    1
     9    14    15    1
    10    14    16    1
    11    14    17    1
    12     7     8   ar
    13     8     9   ar
    14     9    10   ar
    15    10     2   ar
    16     9     4   ar
    17     1    11    1
    18     1    12    1
@<TRIPOS>MOLECULE
*****
 17 18 0 0 0
SMALL
GASTEIGER

@<TRIPOS>ATOM
      1 N          68.1090   93.4789   15.1958 N.pl3   1  UNL1       -0.3375
      2 C          67.0647   92.9602   14.2522 C.ar    1  UNL1        0.1567
      3 N          66.9156   93.3377   12.8082 N.ar    1  UNL1       -0.2245
      4 C          65.7449   92.5838   12.2505 C.ar    1  UNL1        0.0893
      5 C          65.1277   92.5563   10.8836 C.ar    1  UNL1        0.0202
      6 C          63.9361   91.6854   10.6161 C.ar    1  UNL1        0.0080
      7 C          63.3617   90.8419   11.7155 C.ar    1  UNL1        0.0334
      8 C          63.9789   90.8694   13.0823 C.ar    1  UNL1        0.0145
      9 C          65.1705   91.7403   13.3498 C.ar    1  UNL1        0.0502
     10 S          65.9862   91.9730   14.5869 S.2     1  UNL1       -0.0520
     11 H          68.7782   94.1286   14.8806 H       1  UNL1        0.1442
     12 H          68.1253   93.1697   16.1303 H       1  UNL1        0.1442
     13 S          62.1701   89.9709   11.4480 S.3     1  UNL1       -0.0144
     14 C          62.2777   88.8288   10.4817 C.3     1  UNL1        0.4477
     15 F          62.9762   88.0104   11.5268 F       1  UNL1       -0.1600
     16 F          61.5793   89.6471    9.4366 F       1  UNL1       -0.1600
     17 F          62.3854   87.6865    9.5154 F       1  UNL1       -0.1600
@<TRIPOS>BOND
     1     1     2    1
     2     2     3   ar
     3     3     4   ar
     4     4     5   ar
     5     5     6   ar
     6     6     7   ar
     7     7    13    1
     8    13    14    1
     9    14    15    1
    10    14    16    1
    11    14    17    1
    12     7     8   ar
    13     8     9   ar
    14     9    10   ar
    15    10     2   ar
    16     9     4   ar
    17     1    11    1
    18     1    12    1
@<TRIPOS>MOLECULE
*****
 17 18 0 0 0
SMALL
GASTEIGER

@<TRIPOS>ATOM
      1 N          61.6650   88.6657   11.7158 N.pl3   1  UNL1       -0.3375
      2 C          62.7117   89.7008   12.0038 C.ar    1  UNL1        0.1567
      3 N          63.2692   90.6880   11.0217 N.ar    1  UNL1       -0.2245
      4 C          64.2867   91.5278   11.7355 C.ar    1  UNL1        0.0893
      5 C          65.1575   92.6583   11.2733 C.ar    1  UNL1        0.0202
      6 C          66.0996   93.3206   12.2344 C.ar    1  UNL1        0.0080
      7 C          66.1710   92.8523   13.6576 C.ar    1  UNL1        0.0334
      8 C          65.3003   91.7218   14.1198 C.ar    1  UNL1        0.0145
      9 C          64.3581   91.0595   13.1587 C.ar    1  UNL1        0.0502
     10 S          63.3847   89.9304   13.3246 S.2     1  UNL1       -0.0520
     11 H          61.2809   88.5921   10.8123 H       1  UNL1        0.1442
     12 H          61.3621   88.0598   12.4302 H       1  UNL1        0.1442
     13 S          67.1132   93.5147   14.6187 S.3     1  UNL1       -0.0144
     14 C          67.8028   92.7014   15.6737 C.3     1  UNL1        0.4477
     15 F          66.6915   93.0051   16.6342 F       1  UNL1       -0.1600
     16 F          68.9141   92.3977   14.7132 F       1  UNL1       -0.1600
     17 F          68.4924   91.8881   16.7288 F       1  UNL1       -0.1600
@<TRIPOS>BOND
     1     1     2    1
     2     2     3   ar
     3     3     4   ar
     4     4     5   ar
     5     5     6   ar
     6     6     7   ar
     7     7    13    1
     8    13    14    1
     9    14    15    1
    10    14    16    1
    11    14    17    1
    12     7     8   ar
    13     8     9   ar
    14     9    10   ar
    15    10     2   ar
    16     9     4   ar
    17     1    11    1
    18     1    12    1
@<TRIPOS>MOLECULE
*****
 17 18 0 0 0
SMALL
GASTEIGER

@<TRIPOS>ATOM
      1 N          59.9445   90.1889    9.9731 N.pl3   1  UNL1       -0.3375
      2 C          60.6806   88.8822    9.9993 C.ar    1  UNL1        0.1567
      3 N          61.2692   88.1778    8.8129 N.ar    1  UNL1       -0.2245
      4 C          61.9098   86.9108    9.2969 C.ar    1  UNL1        0.0893
      5 C          62.6437   85.8186    8.5769 C.ar    1  UNL1        0.0202
      6 C          63.1849   84.6476    9.3423 C.ar    1  UNL1        0.0080
      7 C          62.9922   84.5689   10.8278 C.ar    1  UNL1        0.0334
      8 C          62.2584   85.6611   11.5479 C.ar    1  UNL1        0.0145
      9 C          61.7172   86.8321   10.7824 C.ar    1  UNL1        0.0502
     10 S          60.9575   88.0505   11.2165 S.2     1  UNL1       -0.0520
     11 H          59.8124   90.6624    9.1201 H       1  UNL1        0.1442
     12 H          59.5934   90.5729   10.8088 H       1  UNL1        0.1442
     13 S          63.5335   83.3979   11.5933 S.3     1  UNL1       -0.0144
     14 C          63.2791   82.0019   11.1072 C.3     1  UNL1        0.4477
     15 F          62.0384   81.9354   11.9476 F       1  UNL1       -0.1600
     16 F          64.5198   82.0684   10.2668 F       1  UNL1       -0.1600
     17 F          63.0246   80.6057   10.6211 F       1  UNL1       -0.1600
@<TRIPOS>BOND
     1     1     2    1
     2     2     3   ar
     3     3     4   ar
     4     4     5   ar
     5     5     6   ar
     6     6     7   ar
     7     7    13    1
     8    13    14    1
     9    14    15    1
    10    14    16    1
    11    14    17    1
    12     7     8   ar
    13     8     9   ar
    14     9    10   ar
    15    10     2   ar
    16     9     4   ar
    17     1    11    1
    18     1    12    1
