@<TRIPOS>MOLECULE
*****
 34 37 0 0 0
SMALL
GASTEIGER

@<TRIPOS>ATOM
      1 C          60.7719   88.7848    9.6333 C.ar    1  UNL1        0.0908
      2 C          59.7740   88.2237   10.6026 C.ar    1  UNL1        0.1363
      3 N          60.5078   87.3294   11.5575 N.ar    1  UNL1       -0.1660
      4 N          61.9591   87.3379   11.1784 N.ar    1  UNL1       -0.2436
      5 C          62.1223   88.2374    9.9892 C.ar    1  UNL1        0.1117
      6 O          59.1496   87.8519    7.2884 O.2     1  UNL1       -0.2680
      7 C          59.6608   89.2615    7.3336 C.2     1  UNL1        0.2706
      8 N          60.4719   89.7279    8.5060 N.am    1  UNL1       -0.2766
      9 H          60.8074   90.6530    8.5356 H       1  UNL1        0.1553
     10 C          59.3608   90.2044    6.2063 C.ar    1  UNL1        0.1765
     11 C          60.3736   90.9219    5.3638 C.ar    1  UNL1        0.0704
     12 C          59.6342   91.7564    4.3604 C.ar    1  UNL1        0.2113
     13 O          58.1645   91.5547    4.5827 O.2     1  UNL1       -0.3501
     14 N          57.9956   90.5955    5.7235 N.ar    1  UNL1       -0.0722
     15 C          60.2554   92.6378    3.3177 C.ar    1  UNL1        0.1824
     16 C          61.6078   92.4501    2.6964 C.ar    1  UNL1        0.0440
     17 C          61.8215   93.5580    1.7080 C.ar    1  UNL1        0.0439
     18 C          60.6013   94.4303    1.7184 C.ar    1  UNL1        0.1798
     19 O          59.6334   93.8616    2.7133 O.2     1  UNL1       -0.4472
     20 C          63.0548   86.5799   11.8675 C.3     1  UNL1        0.1538
     21 C          62.8666   85.1306   12.2052 C.ar    1  UNL1        0.0060
     22 C          62.6539   84.7141   13.6304 C.ar    1  UNL1       -0.0024
     23 C          62.4657   83.2648   13.9682 C.ar    1  UNL1        0.0036
     24 C          62.4902   82.2320   12.8807 C.ar    1  UNL1        0.0714
     25 C          62.7028   82.6485   11.4554 C.ar    1  UNL1        0.0074
     26 C          62.8911   84.0978   11.1177 C.ar    1  UNL1        0.0693
     27 C          62.3020   80.7826   13.2184 C.3     1  UNL1        0.4186
     28 F          62.1138   79.3333   13.5560 F       1  UNL1       -0.1659
     29 F          62.8372   80.3992   11.8706 F       1  UNL1       -0.1659
     30 F          61.7667   81.1661   14.5661 F       1  UNL1       -0.1659
     31 C          63.1037   84.5143    9.6925 C.3     1  UNL1        0.4183
     32 F          63.3164   84.9308    8.2672 F       1  UNL1       -0.1659
     33 F          61.6922   85.0179    9.6290 F       1  UNL1       -0.1659
     34 F          64.5152   84.0107    9.7559 F       1  UNL1       -0.1659
@<TRIPOS>BOND
     1     6     7    2
     2     7     8   am
     3     8     1    1
     4     1     2   ar
     5     2     3   ar
     6     3     4   ar
     7     4    20    1
     8    20    21    1
     9    21    22   ar
    10    22    23   ar
    11    23    24   ar
    12    24    27    1
    13    27    28    1
    14    27    29    1
    15    27    30    1
    16    24    25   ar
    17    25    26   ar
    18    26    31    1
    19    31    32    1
    20    31    33    1
    21    31    34    1
    22     4     5   ar
    23     7    10    1
    24    10    11   ar
    25    11    12   ar
    26    12    15    1
    27    15    16   ar
    28    16    17   ar
    29    17    18   ar
    30    18    19   ar
    31    12    13   ar
    32    13    14   ar
    33     5     1   ar
    34    14    10   ar
    35    26    21   ar
    36    19    15   ar
    37     8     9    1
@<TRIPOS>MOLECULE
*****
 34 37 0 0 0
SMALL
GASTEIGER

@<TRIPOS>ATOM
      1 C          63.8925   88.6657   15.6572 C.ar    1  UNL1        0.0908
      2 C          63.0021   89.4492   16.5756 C.ar    1  UNL1        0.1363
      3 N          63.3095   90.9053   16.3885 N.ar    1  UNL1       -0.1660
      4 N          64.3898   91.0219   15.3544 N.ar    1  UNL1       -0.2436
      5 C          64.7501   89.6377   14.9024 C.ar    1  UNL1        0.1117
      6 O          63.4880   87.4023   12.9663 O.2     1  UNL1       -0.2680
      7 C          63.7180   86.5407   14.1726 C.2     1  UNL1        0.2706
      8 N          63.9202   87.1724   15.5179 N.am    1  UNL1       -0.2766
      9 H          64.0712   86.6070   16.3096 H       1  UNL1        0.1553
     10 C          63.7458   85.0474   14.0332 C.ar    1  UNL1        0.1765
     11 C          63.3715   84.2693   12.8066 C.ar    1  UNL1        0.0704
     12 C          63.5471   82.8111   13.1113 C.ar    1  UNL1        0.2113
     13 O          64.0299   82.6880   14.5261 O.2     1  UNL1       -0.3501
     14 N          64.1527   84.0701   15.0959 N.ar    1  UNL1       -0.0722
     15 C          63.2858   81.6755   12.1668 C.ar    1  UNL1        0.1824
     16 C          63.4226   81.7211   10.6738 C.ar    1  UNL1        0.0440
     17 C          63.0632   80.3686   10.1339 C.ar    1  UNL1        0.0439
     18 C          62.7042   79.4871   11.2932 C.ar    1  UNL1        0.1798
     19 O          62.8418   80.2948   12.5497 O.2     1  UNL1       -0.4472
     20 C          65.0024   92.2984   14.8592 C.3     1  UNL1        0.1538
     21 C          65.7695   92.3116   13.5702 C.ar    1  UNL1        0.0060
     22 C          65.0376   92.3727   12.2624 C.ar    1  UNL1       -0.0024
     23 C          65.8047   92.3859   10.9735 C.ar    1  UNL1        0.0036
     24 C          67.3037   92.3380   10.9924 C.ar    1  UNL1        0.0714
     25 C          68.0357   92.2768   12.3003 C.ar    1  UNL1        0.0074
     26 C          67.2686   92.2636   13.5892 C.ar    1  UNL1        0.0693
     27 C          68.0709   92.3511    9.7034 C.3     1  UNL1        0.4186
     28 F          68.8381   92.3644    8.4146 F       1  UNL1       -0.1659
     29 F          68.1047   93.8503    9.7389 F       1  UNL1       -0.1659
     30 F          68.0372   90.8520    9.6680 F       1  UNL1       -0.1659
     31 C          68.0006   92.2025   14.8970 C.3     1  UNL1        0.4183
     32 F          68.7326   92.1413   16.2049 F       1  UNL1       -0.1659
     33 F          68.1757   93.6919   14.8686 F       1  UNL1       -0.1659
     34 F          67.8255   90.7130   14.9254 F       1  UNL1       -0.1659
@<TRIPOS>BOND
     1     6     7    2
     2     7     8   am
     3     8     1    1
     4     1     2   ar
     5     2     3   ar
     6     3     4   ar
     7     4    20    1
     8    20    21    1
     9    21    22   ar
    10    22    23   ar
    11    23    24   ar
    12    24    27    1
    13    27    28    1
    14    27    29    1
    15    27    30    1
    16    24    25   ar
    17    25    26   ar
    18    26    31    1
    19    31    32    1
    20    31    33    1
    21    31    34    1
    22     4     5   ar
    23     7    10    1
    24    10    11   ar
    25    11    12   ar
    26    12    15    1
    27    15    16   ar
    28    16    17   ar
    29    17    18   ar
    30    18    19   ar
    31    12    13   ar
    32    13    14   ar
    33     5     1   ar
    34    14    10   ar
    35    26    21   ar
    36    19    15   ar
    37     8     9    1
@<TRIPOS>MOLECULE
*****
 34 37 0 0 0
SMALL
GASTEIGER

@<TRIPOS>ATOM
      1 C          62.8225   88.7724   11.9359 C.ar    1  UNL1        0.0908
      2 C          63.4652   89.8289   12.7848 C.ar    1  UNL1        0.1363
      3 N          64.1876   89.1452   13.9076 N.ar    1  UNL1       -0.1660
      4 N          63.9914   87.6662   13.7526 N.ar    1  UNL1       -0.2436
      5 C          63.1477   87.4358   12.5340 C.ar    1  UNL1        0.1117
      6 O          60.8519   86.7016   11.0254 O.2     1  UNL1       -0.2680
      7 C          61.0138   87.9753   10.2496 C.2     1  UNL1        0.2706
      8 N          61.9990   89.0106   10.7049 N.am    1  UNL1       -0.2766
      9 H          62.1053   89.8465   10.1958 H       1  UNL1        0.1553
     10 C          60.1903   88.2134    9.0187 C.ar    1  UNL1        0.1765
     11 C          60.1205   89.4928    8.2386 C.ar    1  UNL1        0.0704
     12 C          59.1792   89.2842    7.0896 C.ar    1  UNL1        0.2113
     13 O          58.6673   87.8760    7.1594 O.2     1  UNL1       -0.3501
     14 N          59.2922   87.2142    8.3517 N.ar    1  UNL1       -0.0722
     15 C          58.8139   90.3047    6.0526 C.ar    1  UNL1        0.1824
     16 C          59.7742   91.0612    5.1835 C.ar    1  UNL1        0.0440
     17 C          58.9780   91.9719    4.2965 C.ar    1  UNL1        0.0439
     18 C          57.5256   91.7782    4.6175 C.ar    1  UNL1        0.1798
     19 O          57.4242   90.7478    5.7029 O.2     1  UNL1       -0.4472
     20 C          64.5422   86.6041   14.6573 C.3     1  UNL1        0.1538
     21 C          64.0941   85.1809   14.5029 C.ar    1  UNL1        0.0060
     22 C          64.6286   84.3441   13.3786 C.ar    1  UNL1       -0.0024
     23 C          64.1805   82.9210   13.2242 C.ar    1  UNL1        0.0036
     24 C          63.1979   82.3347   14.1940 C.ar    1  UNL1        0.0714
     25 C          62.6634   83.1715   15.3183 C.ar    1  UNL1        0.0074
     26 C          63.1115   84.5946   15.4728 C.ar    1  UNL1        0.0693
     27 C          62.7498   80.9115   14.0396 C.3     1  UNL1        0.4186
     28 F          62.3017   79.4884   13.8852 F       1  UNL1       -0.1659
     29 F          64.1599   80.5006   13.7351 F       1  UNL1       -0.1659
     30 F          61.3397   81.3224   14.3441 F       1  UNL1       -0.1659
     31 C          62.5770   85.4314   16.5970 C.3     1  UNL1        0.4183
     32 F          62.0424   86.2682   17.7213 F       1  UNL1       -0.1659
     33 F          63.9627   85.5668   17.1551 F       1  UNL1       -0.1659
     34 F          61.1912   85.2960   16.0390 F       1  UNL1       -0.1659
@<TRIPOS>BOND
     1     6     7    2
     2     7     8   am
     3     8     1    1
     4     1     2   ar
     5     2     3   ar
     6     3     4   ar
     7     4    20    1
     8    20    21    1
     9    21    22   ar
    10    22    23   ar
    11    23    24   ar
    12    24    27    1
    13    27    28    1
    14    27    29    1
    15    27    30    1
    16    24    25   ar
    17    25    26   ar
    18    26    31    1
    19    31    32    1
    20    31    33    1
    21    31    34    1
    22     4     5   ar
    23     7    10    1
    24    10    11   ar
    25    11    12   ar
    26    12    15    1
    27    15    16   ar
    28    16    17   ar
    29    17    18   ar
    30    18    19   ar
    31    12    13   ar
    32    13    14   ar
    33     5     1   ar
    34    14    10   ar
    35    26    21   ar
    36    19    15   ar
    37     8     9    1
@<TRIPOS>MOLECULE
*****
 34 37 0 0 0
SMALL
GASTEIGER

@<TRIPOS>ATOM
      1 C          61.9619   88.1221   11.3800 C.ar    1  UNL1        0.0908
      2 C          60.7760   89.0058   11.1294 C.ar    1  UNL1        0.1363
      3 N          61.2613   90.4232   11.0569 N.ar    1  UNL1       -0.1660
      4 N          62.7471   90.4156   11.2627 N.ar    1  UNL1       -0.2436
      5 C          63.1801   88.9934   11.4624 C.ar    1  UNL1        0.1117
      6 O          63.6542   86.7836   13.4644 O.2     1  UNL1       -0.2680
      7 C          62.7805   85.9599   12.5653 C.2     1  UNL1        0.2706
      8 N          61.9344   86.6291   11.5231 N.am    1  UNL1       -0.2766
      9 H          61.3610   86.0886   10.9330 H       1  UNL1        0.1553
     10 C          62.7531   84.4670   12.7085 C.ar    1  UNL1        0.1765
     11 C          62.8037   83.4726   11.5865 C.ar    1  UNL1        0.0704
     12 C          62.7521   82.0974   12.1833 C.ar    1  UNL1        0.2113
     13 O          62.6697   82.2418   13.6740 O.2     1  UNL1       -0.3501
     14 N          62.6703   83.7063   13.9986 N.ar    1  UNL1       -0.0722
     15 C          62.7784   80.8048   11.4228 C.ar    1  UNL1        0.1824
     16 C          63.0233   80.6527    9.9507 C.ar    1  UNL1        0.0440
     17 C          62.9607   79.1912    9.6190 C.ar    1  UNL1        0.0439
     18 C          62.6771   78.4400   10.8860 C.ar    1  UNL1        0.1798
     19 O          62.5644   79.4373   12.0008 O.2     1  UNL1       -0.4472
     20 C          63.6427   91.6188   11.2680 C.3     1  UNL1        0.1538
     21 C          64.6744   91.7813   12.3447 C.ar    1  UNL1        0.0060
     22 C          64.4638   91.1460   13.6871 C.ar    1  UNL1       -0.0024
     23 C          65.4954   91.3083   14.7638 C.ar    1  UNL1        0.0036
     24 C          66.7376   92.1061   14.4981 C.ar    1  UNL1        0.0714
     25 C          66.9481   92.7414   13.1557 C.ar    1  UNL1        0.0074
     26 C          65.9165   92.5790   12.0790 C.ar    1  UNL1        0.0693
     27 C          67.7693   92.2685   15.5749 C.3     1  UNL1        0.4186
     28 F          68.8010   92.4309   16.6515 F       1  UNL1       -0.1659
     29 F          68.8519   91.9578   14.5843 F       1  UNL1       -0.1659
     30 F          66.6866   92.5792   16.5654 F       1  UNL1       -0.1659
     31 C          66.1271   93.2143   10.7366 C.3     1  UNL1        0.4183
     32 F          66.3376   93.8496    9.3942 F       1  UNL1       -0.1659
     33 F          65.4236   94.4511   11.2116 F       1  UNL1       -0.1659
     34 F          66.8305   91.9776   10.2616 F       1  UNL1       -0.1659
@<TRIPOS>BOND
     1     6     7    2
     2     7     8   am
     3     8     1    1
     4     1     2   ar
     5     2     3   ar
     6     3     4   ar
     7     4    20    1
     8    20    21    1
     9    21    22   ar
    10    22    23   ar
    11    23    24   ar
    12    24    27    1
    13    27    28    1
    14    27    29    1
    15    27    30    1
    16    24    25   ar
    17    25    26   ar
    18    26    31    1
    19    31    32    1
    20    31    33    1
    21    31    34    1
    22     4     5   ar
    23     7    10    1
    24    10    11   ar
    25    11    12   ar
    26    12    15    1
    27    15    16   ar
    28    16    17   ar
    29    17    18   ar
    30    18    19   ar
    31    12    13   ar
    32    13    14   ar
    33     5     1   ar
    34    14    10   ar
    35    26    21   ar
    36    19    15   ar
    37     8     9    1
@<TRIPOS>MOLECULE
*****
 34 37 0 0 0
SMALL
GASTEIGER

@<TRIPOS>ATOM
      1 C          60.7936   88.8319    9.7084 C.ar    1  UNL1        0.0908
      2 C          59.7686   88.3216   10.6775 C.ar    1  UNL1        0.1363
      3 N          60.4699   87.4533   11.6796 N.ar    1  UNL1       -0.1660
      4 N          61.9284   87.4270   11.3298 N.ar    1  UNL1       -0.2436
      5 C          62.1284   88.2790   10.1116 C.ar    1  UNL1        0.1117
      6 O          59.0744   87.8884    7.4380 O.2     1  UNL1       -0.2680
      7 C          59.6705   89.2646    7.4059 C.2     1  UNL1        0.2706
      8 N          60.5300   89.7363    8.5411 N.am    1  UNL1       -0.2766
      9 H          60.9212   90.6395    8.5201 H       1  UNL1        0.1553
     10 C          59.4068   90.1690    6.2386 C.ar    1  UNL1        0.1765
     11 C          60.4450   90.7803    5.3449 C.ar    1  UNL1        0.0704
     12 C          59.7387   91.6099    4.3140 C.ar    1  UNL1        0.2113
     13 O          58.2640   91.5114    4.5705 O.2     1  UNL1       -0.3501
     14 N          58.0590   90.6208    5.7600 N.ar    1  UNL1       -0.0722
     15 C          60.3922   92.3994    3.2188 C.ar    1  UNL1        0.1824
     16 C          59.6870   93.2434    2.1988 C.ar    1  UNL1        0.0440
     17 C          60.7247   93.8492    1.3009 C.ar    1  UNL1        0.0439
     18 C          62.0712   93.3796    1.7659 C.ar    1  UNL1        0.1798
     19 O          61.8658   92.4836    2.9513 O.2     1  UNL1       -0.4472
     20 C          62.9988   86.6798   12.0686 C.3     1  UNL1        0.1538
     21 C          62.9374   85.1843   12.1680 C.ar    1  UNL1        0.0060
     22 C          62.6304   84.3637   10.9505 C.ar    1  UNL1       -0.0024
     23 C          62.5689   82.8683   11.0499 C.ar    1  UNL1        0.0036
     24 C          62.8144   82.1935   12.3668 C.ar    1  UNL1        0.0714
     25 C          63.1214   83.0141   13.5844 C.ar    1  UNL1        0.0074
     26 C          63.1828   84.5095   13.4850 C.ar    1  UNL1        0.0693
     27 C          62.7529   80.6980   12.4663 C.3     1  UNL1        0.4186
     28 F          62.6915   79.2026   12.5657 F       1  UNL1       -0.1659
     29 F          62.9109   80.5926   10.9784 F       1  UNL1       -0.1659
     30 F          62.5949   80.8034   13.9542 F       1  UNL1       -0.1659
     31 C          63.4898   85.3301   14.7025 C.3     1  UNL1        0.4183
     32 F          63.7968   86.1508   15.9200 F       1  UNL1       -0.1659
     33 F          62.1449   84.9882   15.2720 F       1  UNL1       -0.1659
     34 F          64.8347   85.6721   14.1330 F       1  UNL1       -0.1659
@<TRIPOS>BOND
     1     6     7    2
     2     7     8   am
     3     8     1    1
     4     1     2   ar
     5     2     3   ar
     6     3     4   ar
     7     4    20    1
     8    20    21    1
     9    21    22   ar
    10    22    23   ar
    11    23    24   ar
    12    24    27    1
    13    27    28    1
    14    27    29    1
    15    27    30    1
    16    24    25   ar
    17    25    26   ar
    18    26    31    1
    19    31    32    1
    20    31    33    1
    21    31    34    1
    22     4     5   ar
    23     7    10    1
    24    10    11   ar
    25    11    12   ar
    26    12    15    1
    27    15    16   ar
    28    16    17   ar
    29    17    18   ar
    30    18    19   ar
    31    12    13   ar
    32    13    14   ar
    33     5     1   ar
    34    14    10   ar
    35    26    21   ar
    36    19    15   ar
    37     8     9    1
@<TRIPOS>MOLECULE
*****
 34 37 0 0 0
SMALL
GASTEIGER

@<TRIPOS>ATOM
      1 C          62.0045   90.0330   11.4269 C.ar    1  UNL1        0.0908
      2 C          60.7819   90.4598   10.6698 C.ar    1  UNL1        0.1363
      3 N          60.3339   89.3050    9.8238 N.ar    1  UNL1       -0.1660
      4 N          61.2796   88.1644   10.0581 N.ar    1  UNL1       -0.2436
      5 C          62.3120   88.6144   11.0488 C.ar    1  UNL1        0.1117
      6 O          63.4663   88.7421   13.7066 O.2     1  UNL1       -0.2680
      7 C          63.5138   90.2313   13.5323 C.2     1  UNL1        0.2706
      8 N          62.7828   90.8767   12.3925 N.am    1  UNL1       -0.2766
      9 H          62.8140   91.8540   12.2781 H       1  UNL1        0.1553
     10 C          64.2921   91.0749   14.4980 C.ar    1  UNL1        0.1765
     11 C          65.7384   91.4525   14.3717 C.ar    1  UNL1        0.0704
     12 C          66.1011   92.3000   15.5551 C.ar    1  UNL1        0.2113
     13 O          64.8790   92.4461   16.4126 O.2     1  UNL1       -0.3501
     14 N          63.7611   91.6889   15.7593 N.ar    1  UNL1       -0.0722
     15 C          67.4491   92.8966   15.8322 C.ar    1  UNL1        0.1824
     16 C          68.6913   92.1381   16.1952 C.ar    1  UNL1        0.0440
     17 C          69.8015   93.1291   16.3823 C.ar    1  UNL1        0.0439
     18 C          69.2456   94.5002   16.1350 C.ar    1  UNL1        0.1798
     19 O          67.7917   94.3565   15.7950 O.2     1  UNL1       -0.4472
     20 C          61.2057   86.8115    9.4146 C.3     1  UNL1        0.1538
     21 C          61.9338   85.6503   10.0243 C.ar    1  UNL1        0.0060
     22 C          61.8495   85.4042   11.5015 C.ar    1  UNL1       -0.0024
     23 C          62.5775   84.2430   12.1112 C.ar    1  UNL1        0.0036
     24 C          63.3897   83.3280   11.2435 C.ar    1  UNL1        0.0714
     25 C          63.4740   83.5741    9.7663 C.ar    1  UNL1        0.0074
     26 C          62.7460   84.7352    9.1566 C.ar    1  UNL1        0.0693
     27 C          64.1178   82.1667   11.8532 C.3     1  UNL1        0.4186
     28 F          64.8458   81.0056   12.4628 F       1  UNL1       -0.1659
     29 F          64.5283   83.0307   13.0086 F       1  UNL1       -0.1659
     30 F          63.7073   81.3028   10.6978 F       1  UNL1       -0.1659
     31 C          62.8303   84.9813    7.6794 C.3     1  UNL1        0.4183
     32 F          62.9146   85.2274    6.2021 F       1  UNL1       -0.1659
     33 F          61.6550   84.0751    7.4614 F       1  UNL1       -0.1659
     34 F          64.0056   85.8875    7.8973 F       1  UNL1       -0.1659
@<TRIPOS>BOND
     1     6     7    2
     2     7     8   am
     3     8     1    1
     4     1     2   ar
     5     2     3   ar
     6     3     4   ar
     7     4    20    1
     8    20    21    1
     9    21    22   ar
    10    22    23   ar
    11    23    24   ar
    12    24    27    1
    13    27    28    1
    14    27    29    1
    15    27    30    1
    16    24    25   ar
    17    25    26   ar
    18    26    31    1
    19    31    32    1
    20    31    33    1
    21    31    34    1
    22     4     5   ar
    23     7    10    1
    24    10    11   ar
    25    11    12   ar
    26    12    15    1
    27    15    16   ar
    28    16    17   ar
    29    17    18   ar
    30    18    19   ar
    31    12    13   ar
    32    13    14   ar
    33     5     1   ar
    34    14    10   ar
    35    26    21   ar
    36    19    15   ar
    37     8     9    1
@<TRIPOS>MOLECULE
*****
 34 37 0 0 0
SMALL
GASTEIGER

@<TRIPOS>ATOM
      1 C          63.4720   87.3726   15.8297 C.ar    1  UNL1        0.0908
      2 C          63.0492   88.0303   17.1099 C.ar    1  UNL1        0.1363
      3 N          63.1397   89.5154   16.9198 N.ar    1  UNL1       -0.1660
      4 N          63.6185   89.7756   15.5223 N.ar    1  UNL1       -0.2436
      5 C          63.8239   88.4512   14.8486 C.ar    1  UNL1        0.1117
      6 O          63.1089   86.3136   13.0464 O.2     1  UNL1       -0.2680
      7 C          63.3509   85.3660   14.1838 C.2     1  UNL1        0.2706
      8 N          63.5324   85.8955   15.5754 N.am    1  UNL1       -0.2766
      9 H          63.6912   85.2736   16.3219 H       1  UNL1        0.1553
     10 C          63.4112   83.8889   13.9294 C.ar    1  UNL1        0.1765
     11 C          63.0816   83.2027   12.6369 C.ar    1  UNL1        0.0704
     12 C          63.2784   81.7285   12.8315 C.ar    1  UNL1        0.2113
     13 O          63.7297   81.5036   14.2442 O.2     1  UNL1       -0.3501
     14 N          63.8118   82.8388   14.9227 N.ar    1  UNL1       -0.0722
     15 C          63.0620   80.6658   11.7952 C.ar    1  UNL1        0.1824
     16 C          63.2000   80.8398   10.3117 C.ar    1  UNL1        0.0440
     17 C          62.8928   79.5240    9.6602 C.ar    1  UNL1        0.0439
     18 C          62.5650   78.5369   10.7410 C.ar    1  UNL1        0.1798
     19 O          62.6695   79.2426   12.0606 O.2     1  UNL1       -0.4472
     20 C          63.8511   91.1234   14.9065 C.3     1  UNL1        0.1538
     21 C          65.1938   91.7813   15.0267 C.ar    1  UNL1        0.0060
     22 C          65.7974   92.0122   16.3803 C.ar    1  UNL1       -0.0024
     23 C          67.1401   92.6701   16.5005 C.ar    1  UNL1        0.0036
     24 C          67.8791   93.0970   15.2670 C.ar    1  UNL1        0.0714
     25 C          67.2755   92.8660   13.9134 C.ar    1  UNL1        0.0074
     26 C          65.9329   92.2082   13.7932 C.ar    1  UNL1        0.0693
     27 C          69.2218   93.7549   15.3871 C.3     1  UNL1        0.4186
     28 F          70.5645   94.4127   15.5072 F       1  UNL1       -0.1659
     29 F          69.7983   92.7526   14.4316 F       1  UNL1       -0.1659
     30 F          68.6453   94.7571   16.3426 F       1  UNL1       -0.1659
     31 C          65.3293   91.9773   12.4395 C.3     1  UNL1        0.4183
     32 F          64.7257   91.7463   11.0859 F       1  UNL1       -0.1659
     33 F          65.4712   93.4375   12.1271 F       1  UNL1       -0.1659
     34 F          65.1874   90.5170   12.7519 F       1  UNL1       -0.1659
@<TRIPOS>BOND
     1     6     7    2
     2     7     8   am
     3     8     1    1
     4     1     2   ar
     5     2     3   ar
     6     3     4   ar
     7     4    20    1
     8    20    21    1
     9    21    22   ar
    10    22    23   ar
    11    23    24   ar
    12    24    27    1
    13    27    28    1
    14    27    29    1
    15    27    30    1
    16    24    25   ar
    17    25    26   ar
    18    26    31    1
    19    31    32    1
    20    31    33    1
    21    31    34    1
    22     4     5   ar
    23     7    10    1
    24    10    11   ar
    25    11    12   ar
    26    12    15    1
    27    15    16   ar
    28    16    17   ar
    29    17    18   ar
    30    18    19   ar
    31    12    13   ar
    32    13    14   ar
    33     5     1   ar
    34    14    10   ar
    35    26    21   ar
    36    19    15   ar
    37     8     9    1
@<TRIPOS>MOLECULE
*****
 34 37 0 0 0
SMALL
GASTEIGER

@<TRIPOS>ATOM
      1 C          60.5882   89.2007    9.3156 C.ar    1  UNL1        0.0908
      2 C          59.9998   87.8577    9.6323 C.ar    1  UNL1        0.1363
      3 N          60.7456   87.2894   10.8032 N.ar    1  UNL1       -0.1660
      4 N          61.7949   88.2811   11.2100 N.ar    1  UNL1       -0.2436
      5 C          61.6976   89.4623   10.2906 C.ar    1  UNL1        0.1117
      6 O          59.2960   88.0798    6.8510 O.2     1  UNL1       -0.2680
      7 C          59.4988   89.5601    6.9844 C.2     1  UNL1        0.2706
      8 N          60.1449   90.1205    8.2167 N.am    1  UNL1       -0.2766
      9 H          60.2781   91.0920    8.3043 H       1  UNL1        0.1553
     10 C          59.0556   90.4798    5.8855 C.ar    1  UNL1        0.1765
     11 C          59.9475   91.1475    4.8812 C.ar    1  UNL1        0.0704
     12 C          59.0859   91.9737    3.9729 C.ar    1  UNL1        0.2113
     13 O          57.6614   91.8165    4.4159 O.2     1  UNL1       -0.3501
     14 N          57.6427   90.8933    5.5979 N.ar    1  UNL1       -0.0722
     15 C          59.5646   92.8101    2.8235 C.ar    1  UNL1        0.1824
     16 C          60.3679   94.0727    2.9263 C.ar    1  UNL1        0.0440
     17 C          60.6238   94.5737    1.5358 C.ar    1  UNL1        0.0439
     18 C          59.9788   93.6208    0.5737 C.ar    1  UNL1        0.1798
     19 O          59.3241   92.5307    1.3695 O.2     1  UNL1       -0.4472
     20 C          62.7702   88.1199   12.3381 C.3     1  UNL1        0.1538
     21 C          63.5854   89.2921   12.7981 C.ar    1  UNL1        0.0060
     22 C          63.7922   90.4656   11.8870 C.ar    1  UNL1       -0.0024
     23 C          64.6073   91.6377   12.3469 C.ar    1  UNL1        0.0036
     24 C          65.2156   91.6364   13.7179 C.ar    1  UNL1        0.0714
     25 C          65.0089   90.4629   14.6291 C.ar    1  UNL1        0.0074
     26 C          64.1938   89.2908   14.1692 C.ar    1  UNL1        0.0693
     27 C          66.0308   92.8086   14.1779 C.3     1  UNL1        0.4186
     28 F          66.8459   93.9808   14.6378 F       1  UNL1       -0.1659
     29 F          65.7886   93.4922   12.8650 F       1  UNL1       -0.1659
     30 F          66.2730   92.1250   15.4909 F       1  UNL1       -0.1659
     31 C          63.9870   88.1173   15.0803 C.3     1  UNL1        0.4183
     32 F          63.7802   86.9438   15.9914 F       1  UNL1       -0.1659
     33 F          64.7736   87.2504   14.1423 F       1  UNL1       -0.1659
     34 F          63.2004   88.9842   16.0183 F       1  UNL1       -0.1659
@<TRIPOS>BOND
     1     6     7    2
     2     7     8   am
     3     8     1    1
     4     1     2   ar
     5     2     3   ar
     6     3     4   ar
     7     4    20    1
     8    20    21    1
     9    21    22   ar
    10    22    23   ar
    11    23    24   ar
    12    24    27    1
    13    27    28    1
    14    27    29    1
    15    27    30    1
    16    24    25   ar
    17    25    26   ar
    18    26    31    1
    19    31    32    1
    20    31    33    1
    21    31    34    1
    22     4     5   ar
    23     7    10    1
    24    10    11   ar
    25    11    12   ar
    26    12    15    1
    27    15    16   ar
    28    16    17   ar
    29    17    18   ar
    30    18    19   ar
    31    12    13   ar
    32    13    14   ar
    33     5     1   ar
    34    14    10   ar
    35    26    21   ar
    36    19    15   ar
    37     8     9    1
@<TRIPOS>MOLECULE
*****
 34 37 0 0 0
SMALL
GASTEIGER

@<TRIPOS>ATOM
      1 C          59.3997   90.3965    6.2799 C.ar    1  UNL1        0.0908
      2 C          57.9204   90.4773    6.0447 C.ar    1  UNL1        0.1363
      3 N          57.6924   91.2820    4.7995 N.ar    1  UNL1       -0.1660
      4 N          59.0307   91.6984    4.2652 N.ar    1  UNL1       -0.2436
      5 C          60.0859   91.1512    5.1801 C.ar    1  UNL1        0.1117
      6 O          58.3795   87.7286    7.1975 O.2     1  UNL1       -0.2680
      7 C          59.5643   88.3518    7.8744 C.2     1  UNL1        0.2706
      8 N          60.0744   89.6857    7.4155 N.am    1  UNL1       -0.2766
      9 H          60.8520   90.0946    7.8598 H       1  UNL1        0.1553
     10 C          60.2388   87.6409    9.0100 C.ar    1  UNL1        0.1765
     11 C          61.1504   86.4556    8.8910 C.ar    1  UNL1        0.0704
     12 C          61.5952   86.0726   10.2714 C.ar    1  UNL1        0.2113
     13 O          60.9586   87.0212   11.2435 O.2     1  UNL1       -0.3501
     14 N          60.1203   87.9905   10.4639 N.ar    1  UNL1       -0.0722
     15 C          62.5152   84.9399   10.6187 C.ar    1  UNL1        0.1824
     16 C          63.4499   84.2423    9.6755 C.ar    1  UNL1        0.0440
     17 C          64.1743   83.1772   10.4441 C.ar    1  UNL1        0.0439
     18 C          63.6873   83.2165   11.8623 C.ar    1  UNL1        0.1798
     19 O          62.6619   84.3060   11.9702 O.2     1  UNL1       -0.4472
     20 C          59.2716   92.5182    3.0324 C.3     1  UNL1        0.1538
     21 C          60.6740   92.7921    2.5759 C.ar    1  UNL1        0.0060
     22 C          61.8228   92.0557    3.1989 C.ar    1  UNL1       -0.0024
     23 C          63.2251   92.3295    2.7425 C.ar    1  UNL1        0.0036
     24 C          63.4788   93.3397    1.6631 C.ar    1  UNL1        0.0714
     25 C          62.3300   94.0762    1.0401 C.ar    1  UNL1        0.0074
     26 C          60.9277   93.8023    1.4965 C.ar    1  UNL1        0.0693
     27 C          64.8812   93.6136    1.2067 C.3     1  UNL1        0.4186
     28 F          66.2835   93.8874    0.7502 F       1  UNL1       -0.1659
     29 F          64.6756   92.7058    0.0304 F       1  UNL1       -0.1659
     30 F          65.0868   94.5214    2.3829 F       1  UNL1       -0.1659
     31 C          59.7789   94.5388    0.8736 C.3     1  UNL1        0.4183
     32 F          58.6302   95.2752    0.2506 F       1  UNL1       -0.1659
     33 F          59.8916   95.6034    1.9242 F       1  UNL1       -0.1659
     34 F          59.6662   93.4741   -0.1771 F       1  UNL1       -0.1659
@<TRIPOS>BOND
     1     6     7    2
     2     7     8   am
     3     8     1    1
     4     1     2   ar
     5     2     3   ar
     6     3     4   ar
     7     4    20    1
     8    20    21    1
     9    21    22   ar
    10    22    23   ar
    11    23    24   ar
    12    24    27    1
    13    27    28    1
    14    27    29    1
    15    27    30    1
    16    24    25   ar
    17    25    26   ar
    18    26    31    1
    19    31    32    1
    20    31    33    1
    21    31    34    1
    22     4     5   ar
    23     7    10    1
    24    10    11   ar
    25    11    12   ar
    26    12    15    1
    27    15    16   ar
    28    16    17   ar
    29    17    18   ar
    30    18    19   ar
    31    12    13   ar
    32    13    14   ar
    33     5     1   ar
    34    14    10   ar
    35    26    21   ar
    36    19    15   ar
    37     8     9    1
