@<TRIPOS>MOLECULE
*****
 21 23 0 0 0
SMALL
GASTEIGER

@<TRIPOS>ATOM
      1 N          64.0083   90.1924   12.8653 N.ar    1  UNL1       -0.3123
      2 C          64.4437   89.9470   14.2796 C.ar    1  UNL1        0.1213
      3 N          65.3855   91.0465   14.6720 N.ar    1  UNL1       -0.2309
      4 C          65.5322   91.9715   13.5003 C.ar    1  UNL1        0.0983
      5 C          66.3308   93.2262   13.3059 C.ar    1  UNL1        0.0206
      6 C          66.2782   93.9530   11.9948 C.ar    1  UNL1        0.0016
      7 C          65.4271   93.4251   10.8782 C.ar    1  UNL1        0.0016
      8 C          64.6284   92.1704   11.0726 C.ar    1  UNL1        0.0188
      9 C          64.6810   91.4436   12.3837 C.ar    1  UNL1        0.0787
     10 C          64.0129   88.8029   15.1489 C.3     1  UNL1        0.0729
     11 C          63.2854   89.0693   16.4332 C.3     1  UNL1        0.0103
     12 C          62.8546   87.9253   17.3025 C.3     1  UNL1        0.0178
     13 C          63.1514   86.5148   16.8873 C.3     1  UNL1        0.0722
     14 N          63.8789   86.2484   15.6029 N.3     1  UNL1       -0.2711
     15 C          64.1757   84.8378   15.1877 C.3     1  UNL1        0.0896
     16 C          64.3097   87.3924   14.7337 C.3     1  UNL1        0.0796
     17 C          63.0657   89.3368   12.0720 C.3     1  UNL1        0.1392
     18 C          61.6601   89.7989   11.8255 C.3     1  UNL1        0.1666
     19 O          60.5211   88.8295   11.9391 O.3     1  UNL1       -0.3517
     20 C          60.9767   86.7445   10.4575 C.3     1  UNL1        0.0346
     21 C          60.1566   87.9605   10.7721 C.3     1  UNL1        0.1423
@<TRIPOS>BOND
     1    20    21    1
     2    21    19    1
     3    19    18    1
     4    18    17    1
     5    17     1    1
     6     1     2   ar
     7     2    10    1
     8    10    11    1
     9    11    12    1
    10    12    13    1
    11    13    14    1
    12    14    15    1
    13    14    16    1
    14     2     3   ar
    15     3     4   ar
    16     4     5   ar
    17     5     6   ar
    18     6     7   ar
    19     7     8   ar
    20     8     9   ar
    21     9     1   ar
    22    16    10    1
    23     9     4   ar
@<TRIPOS>MOLECULE
*****
 21 23 0 0 0
SMALL
GASTEIGER

@<TRIPOS>ATOM
      1 N          63.9725   86.4199   13.7280 N.ar    1  UNL1       -0.3123
      2 C          63.2462   85.7447   12.6026 C.ar    1  UNL1        0.1213
      3 N          62.6779   86.8100   11.7126 N.ar    1  UNL1       -0.2309
      4 C          63.0529   88.1435   12.2879 C.ar    1  UNL1        0.0983
      5 C          62.7692   89.5462   11.8385 C.ar    1  UNL1        0.0206
      6 C          63.2857   90.7077   12.6347 C.ar    1  UNL1        0.0016
      7 C          64.0859   90.4666   13.8803 C.ar    1  UNL1        0.0016
      8 C          64.3696   89.0640   14.3298 C.ar    1  UNL1        0.0188
      9 C          63.8531   87.9024   13.5335 C.ar    1  UNL1        0.0787
     10 C          63.1118   84.2642   12.4024 C.3     1  UNL1        0.0729
     11 C          63.7525   83.6066   11.2162 C.3     1  UNL1        0.0103
     12 C          63.6181   82.1261   11.0159 C.3     1  UNL1        0.0178
     13 C          62.8431   81.3032   12.0019 C.3     1  UNL1        0.0722
     14 N          62.2024   81.9608   13.1881 N.3     1  UNL1       -0.2711
     15 C          61.4273   81.1379   14.1741 C.3     1  UNL1        0.0896
     16 C          62.3368   83.4413   13.3883 C.3     1  UNL1        0.0796
     17 C          64.6920   85.7331   14.8508 C.3     1  UNL1        0.1392
     18 C          63.9127   85.0273   15.9205 C.3     1  UNL1        0.1666
     19 O          62.5883   85.5721   16.3668 O.3     1  UNL1       -0.3517
     20 C          62.9357   87.9509   17.3520 C.3     1  UNL1        0.0346
     21 C          62.5199   86.5204   17.5270 C.3     1  UNL1        0.1423
@<TRIPOS>BOND
     1    20    21    1
     2    21    19    1
     3    19    18    1
     4    18    17    1
     5    17     1    1
     6     1     2   ar
     7     2    10    1
     8    10    11    1
     9    11    12    1
    10    12    13    1
    11    13    14    1
    12    14    15    1
    13    14    16    1
    14     2     3   ar
    15     3     4   ar
    16     4     5   ar
    17     5     6   ar
    18     6     7   ar
    19     7     8   ar
    20     8     9   ar
    21     9     1   ar
    22    16    10    1
    23     9     4   ar
@<TRIPOS>MOLECULE
*****
 21 23 0 0 0
SMALL
GASTEIGER

@<TRIPOS>ATOM
      1 N          62.6089   85.5052   10.1148 N.ar    1  UNL1       -0.3123
      2 C          62.1502   86.4109   11.2190 C.ar    1  UNL1        0.1213
      3 N          62.2762   85.6639   12.5136 N.ar    1  UNL1       -0.2309
      4 C          62.8127   84.2965   12.2095 C.ar    1  UNL1        0.0983
      5 C          63.1406   83.1281   13.0910 C.ar    1  UNL1        0.0206
      6 C          63.6741   81.8616   12.4900 C.ar    1  UNL1        0.0016
      7 C          63.8797   81.7635   11.0074 C.ar    1  UNL1        0.0016
      8 C          63.5519   82.9320   10.1258 C.ar    1  UNL1        0.0188
      9 C          63.0184   84.1985   10.7269 C.ar    1  UNL1        0.0787
     10 C          61.6529   87.8168   11.0570 C.3     1  UNL1        0.0729
     11 C          60.1990   88.1259   11.2584 C.3     1  UNL1        0.0103
     12 C          59.7017   89.5317   11.0965 C.3     1  UNL1        0.0178
     13 C          60.6582   90.6285   10.7332 C.3     1  UNL1        0.0722
     14 N          62.1121   90.3194   10.5318 N.3     1  UNL1       -0.2711
     15 C          63.0688   91.4162   10.1685 C.3     1  UNL1        0.0896
     16 C          62.6095   88.9135   10.6937 C.3     1  UNL1        0.0796
     17 C          62.6508   85.8464    8.6547 C.3     1  UNL1        0.1392
     18 C          61.4012   85.7647    7.8292 C.3     1  UNL1        0.1666
     19 O          60.0700   86.0658    8.4516 O.3     1  UNL1       -0.3517
     20 C          59.3831   88.3995    7.5393 C.3     1  UNL1        0.0346
     21 C          59.0870   86.9418    7.7329 C.3     1  UNL1        0.1423
@<TRIPOS>BOND
     1    20    21    1
     2    21    19    1
     3    19    18    1
     4    18    17    1
     5    17     1    1
     6     1     2   ar
     7     2    10    1
     8    10    11    1
     9    11    12    1
    10    12    13    1
    11    13    14    1
    12    14    15    1
    13    14    16    1
    14     2     3   ar
    15     3     4   ar
    16     4     5   ar
    17     5     6   ar
    18     6     7   ar
    19     7     8   ar
    20     8     9   ar
    21     9     1   ar
    22    16    10    1
    23     9     4   ar
@<TRIPOS>MOLECULE
*****
 21 23 0 0 0
SMALL
GASTEIGER

@<TRIPOS>ATOM
      1 N          62.7572   86.8506   11.8086 N.ar    1  UNL1       -0.3123
      2 C          63.2633   85.7476   12.6902 C.ar    1  UNL1        0.1213
      3 N          63.9559   86.3735   13.8643 N.ar    1  UNL1       -0.2309
      4 C          63.8779   87.8633   13.7083 C.ar    1  UNL1        0.0983
      5 C          64.3857   88.9895   14.5591 C.ar    1  UNL1        0.0206
      6 C          64.1527   90.4106   14.1393 C.ar    1  UNL1        0.0016
      7 C          63.4118   90.7054   12.8688 C.ar    1  UNL1        0.0016
      8 C          62.9040   89.5793   12.0180 C.ar    1  UNL1        0.0188
      9 C          63.1370   88.1582   12.4378 C.ar    1  UNL1        0.0787
     10 C          63.1046   84.2769   12.4414 C.3     1  UNL1        0.0729
     11 C          63.6676   83.6622   11.1944 C.3     1  UNL1        0.0103
     12 C          63.5089   82.1915   10.9456 C.3     1  UNL1        0.0178
     13 C          62.7872   81.3355   11.9438 C.3     1  UNL1        0.0722
     14 N          62.2242   81.9502   13.1908 N.3     1  UNL1       -0.2711
     15 C          61.5025   81.0943   14.1891 C.3     1  UNL1        0.0896
     16 C          62.3829   83.4209   13.4396 C.3     1  UNL1        0.0796
     17 C          62.0036   86.6766   10.5234 C.3     1  UNL1        0.1392
     18 C          60.5878   87.1593   10.4128 C.3     1  UNL1        0.1666
     19 O          60.2594   88.3237    9.5260 O.3     1  UNL1       -0.3517
     20 C          59.0080   86.8228    7.8138 C.3     1  UNL1        0.0346
     21 C          59.7486   88.0869    8.1356 C.3     1  UNL1        0.1423
@<TRIPOS>BOND
     1    20    21    1
     2    21    19    1
     3    19    18    1
     4    18    17    1
     5    17     1    1
     6     1     2   ar
     7     2    10    1
     8    10    11    1
     9    11    12    1
    10    12    13    1
    11    13    14    1
    12    14    15    1
    13    14    16    1
    14     2     3   ar
    15     3     4   ar
    16     4     5   ar
    17     5     6   ar
    18     6     7   ar
    19     7     8   ar
    20     8     9   ar
    21     9     1   ar
    22    16    10    1
    23     9     4   ar
@<TRIPOS>MOLECULE
*****
 21 23 0 0 0
SMALL
GASTEIGER

@<TRIPOS>ATOM
      1 N          62.0884   86.6865   11.1257 N.ar    1  UNL1       -0.3123
      2 C          62.7611   86.0967   12.3297 C.ar    1  UNL1        0.1213
      3 N          63.4592   87.2053   13.0602 N.ar    1  UNL1       -0.2309
      4 C          63.2179   88.4803   12.3077 C.ar    1  UNL1        0.0983
      5 C          63.6602   89.8918   12.5566 C.ar    1  UNL1        0.0206
      6 C          63.2552   90.9826   11.6100 C.ar    1  UNL1        0.0016
      7 C          62.4080   90.6619   10.4145 C.ar    1  UNL1        0.0016
      8 C          61.9657   89.2504   10.1655 C.ar    1  UNL1        0.0188
      9 C          62.3707   88.1596   11.1121 C.ar    1  UNL1        0.0787
     10 C          62.7396   84.6519   12.7325 C.3     1  UNL1        0.0729
     11 C          62.5011   84.2762   14.1649 C.3     1  UNL1        0.0103
     12 C          62.4795   82.8314   14.5677 C.3     1  UNL1        0.0178
     13 C          62.6965   81.7624   13.5380 C.3     1  UNL1        0.0722
     14 N          62.9350   82.1382   12.1056 N.3     1  UNL1       -0.2711
     15 C          63.1519   81.0692   11.0759 C.3     1  UNL1        0.0896
     16 C          62.9565   83.5830   11.7028 C.3     1  UNL1        0.0796
     17 C          61.2760   85.9351   10.1131 C.3     1  UNL1        0.1392
     18 C          61.3997   86.2679    8.6558 C.3     1  UNL1        0.1666
     19 O          60.2300   86.0667    7.7386 O.3     1  UNL1       -0.3517
     20 C          59.3552   88.4984    7.4709 C.3     1  UNL1        0.0346
     21 C          59.0946   87.0469    7.7450 C.3     1  UNL1        0.1423
@<TRIPOS>BOND
     1    20    21    1
     2    21    19    1
     3    19    18    1
     4    18    17    1
     5    17     1    1
     6     1     2   ar
     7     2    10    1
     8    10    11    1
     9    11    12    1
    10    12    13    1
    11    13    14    1
    12    14    15    1
    13    14    16    1
    14     2     3   ar
    15     3     4   ar
    16     4     5   ar
    17     5     6   ar
    18     6     7   ar
    19     7     8   ar
    20     8     9   ar
    21     9     1   ar
    22    16    10    1
    23     9     4   ar
@<TRIPOS>MOLECULE
*****
 21 23 0 0 0
SMALL
GASTEIGER

@<TRIPOS>ATOM
      1 N          64.0171   90.2663   13.8075 N.ar    1  UNL1       -0.3123
      2 C          63.4686   90.3664   12.4150 C.ar    1  UNL1        0.1213
      3 N          64.1279   91.5324   11.7399 N.ar    1  UNL1       -0.2309
      4 C          65.0839   92.1529   12.7151 C.ar    1  UNL1        0.0983
      5 C          66.0079   93.3293   12.6047 C.ar    1  UNL1        0.0206
      6 C          66.8633   93.7233   13.7721 C.ar    1  UNL1        0.0016
      7 C          66.7948   92.9408   15.0500 C.ar    1  UNL1        0.0016
      8 C          65.8708   91.7644   15.1605 C.ar    1  UNL1        0.0188
      9 C          65.0153   91.3704   13.9930 C.ar    1  UNL1        0.0787
     10 C          62.4412   89.4597   11.8047 C.3     1  UNL1        0.0729
     11 C          61.1573   90.0285   11.2776 C.3     1  UNL1        0.0103
     12 C          60.1299   89.1219   10.6674 C.3     1  UNL1        0.0178
     13 C          60.3865   87.6463   10.5842 C.3     1  UNL1        0.0722
     14 N          61.6704   87.0775   11.1113 N.3     1  UNL1       -0.2711
     15 C          61.9271   85.6019   11.0281 C.3     1  UNL1        0.0896
     16 C          62.6978   87.9842   11.7215 C.3     1  UNL1        0.0796
     17 C          63.6344   89.2420   14.8343 C.3     1  UNL1        0.1392
     18 C          64.4025   87.9575   14.9349 C.3     1  UNL1        0.1666
     19 O          63.6708   86.6534   15.0536 O.3     1  UNL1       -0.3517
     20 C          62.7552   86.4745   17.4784 C.3     1  UNL1        0.0346
     21 C          63.6169   85.9411   16.3726 C.3     1  UNL1        0.1423
@<TRIPOS>BOND
     1    20    21    1
     2    21    19    1
     3    19    18    1
     4    18    17    1
     5    17     1    1
     6     1     2   ar
     7     2    10    1
     8    10    11    1
     9    11    12    1
    10    12    13    1
    11    13    14    1
    12    14    15    1
    13    14    16    1
    14     2     3   ar
    15     3     4   ar
    16     4     5   ar
    17     5     6   ar
    18     6     7   ar
    19     7     8   ar
    20     8     9   ar
    21     9     1   ar
    22    16    10    1
    23     9     4   ar
@<TRIPOS>MOLECULE
*****
 21 23 0 0 0
SMALL
GASTEIGER

@<TRIPOS>ATOM
      1 N          62.3811   87.5555   11.4253 N.ar    1  UNL1       -0.3123
      2 C          62.3144   86.0675   11.6023 C.ar    1  UNL1        0.1213
      3 N          61.3846   85.5182   10.5613 N.ar    1  UNL1       -0.2309
      4 C          60.8767   86.6666    9.7410 C.ar    1  UNL1        0.0983
      5 C          59.9329   86.7285    8.5767 C.ar    1  UNL1        0.0206
      6 C          59.6051   88.0496    7.9465 C.ar    1  UNL1        0.0016
      7 C          60.2210   89.3088    8.4805 C.ar    1  UNL1        0.0016
      8 C          61.1647   89.2469    9.6447 C.ar    1  UNL1        0.0188
      9 C          61.4926   87.9258   10.2749 C.ar    1  UNL1        0.0787
     10 C          63.0486   85.2690   12.6384 C.3     1  UNL1        0.0729
     11 C          63.8166   85.9695   13.7198 C.3     1  UNL1        0.0103
     12 C          64.5508   85.1710   14.7558 C.3     1  UNL1        0.0178
     13 C          64.5170   83.6721   14.7105 C.3     1  UNL1        0.0722
     14 N          63.7490   82.9717   13.6291 N.3     1  UNL1       -0.2711
     15 C          63.7151   81.4727   13.5837 C.3     1  UNL1        0.0896
     16 C          63.0148   83.7701   12.5930 C.3     1  UNL1        0.0796
     17 C          63.1938   88.5063   12.2533 C.3     1  UNL1        0.1392
     18 C          62.5692   89.7638   12.7810 C.3     1  UNL1        0.1666
     19 O          62.6137   90.0641   14.2500 O.3     1  UNL1       -0.3517
     20 C          63.2373   88.8858   16.4800 C.3     1  UNL1        0.0346
     21 C          63.6302   89.3898   15.1229 C.3     1  UNL1        0.1423
@<TRIPOS>BOND
     1    20    21    1
     2    21    19    1
     3    19    18    1
     4    18    17    1
     5    17     1    1
     6     1     2   ar
     7     2    10    1
     8    10    11    1
     9    11    12    1
    10    12    13    1
    11    13    14    1
    12    14    15    1
    13    14    16    1
    14     2     3   ar
    15     3     4   ar
    16     4     5   ar
    17     5     6   ar
    18     6     7   ar
    19     7     8   ar
    20     8     9   ar
    21     9     1   ar
    22    16    10    1
    23     9     4   ar
@<TRIPOS>MOLECULE
*****
 21 23 0 0 0
SMALL
GASTEIGER

@<TRIPOS>ATOM
      1 N          62.1439   87.7907   10.8560 N.ar    1  UNL1       -0.3123
      2 C          62.4088   89.2565   11.0328 C.ar    1  UNL1        0.1213
      3 N          61.5798   90.0016   10.0290 N.ar    1  UNL1       -0.2309
      4 C          60.8026   88.9963    9.2319 C.ar    1  UNL1        0.0983
      5 C          59.8225   89.1487    8.1067 C.ar    1  UNL1        0.0206
      6 C          59.1910   87.9345    7.4927 C.ar    1  UNL1        0.0016
      7 C          59.5397   86.5681    8.0038 C.ar    1  UNL1        0.0016
      8 C          60.5198   86.4158    9.1290 C.ar    1  UNL1        0.0188
      9 C          61.1513   87.6299    9.7431 C.ar    1  UNL1        0.0787
     10 C          63.3393   89.8696   12.0369 C.3     1  UNL1        0.0729
     11 C          63.5900   89.1807   13.3456 C.3     1  UNL1        0.0103
     12 C          64.5205   89.7937   14.3497 C.3     1  UNL1        0.0178
     13 C          65.2003   91.0957   14.0453 C.3     1  UNL1        0.0722
     14 N          64.9496   91.7846   12.7367 N.3     1  UNL1       -0.2711
     15 C          65.6295   93.0866   12.4322 C.3     1  UNL1        0.0896
     16 C          64.0191   91.1715   11.7325 C.3     1  UNL1        0.0796
     17 C          62.7630   86.6806   11.6525 C.3     1  UNL1        0.1392
     18 C          62.1923   85.2955   11.5781 C.3     1  UNL1        0.1666
     19 O          62.9126   84.1515   12.2282 O.3     1  UNL1       -0.3517
     20 C          64.1990   82.9720   10.3036 C.3     1  UNL1        0.0346
     21 C          63.2206   82.9136   11.4391 C.3     1  UNL1        0.1423
@<TRIPOS>BOND
     1    20    21    1
     2    21    19    1
     3    19    18    1
     4    18    17    1
     5    17     1    1
     6     1     2   ar
     7     2    10    1
     8    10    11    1
     9    11    12    1
    10    12    13    1
    11    13    14    1
    12    14    15    1
    13    14    16    1
    14     2     3   ar
    15     3     4   ar
    16     4     5   ar
    17     5     6   ar
    18     6     7   ar
    19     7     8   ar
    20     8     9   ar
    21     9     1   ar
    22    16    10    1
    23     9     4   ar
@<TRIPOS>MOLECULE
*****
 21 23 0 0 0
SMALL
GASTEIGER

@<TRIPOS>ATOM
      1 N          62.3803   84.2491   13.6468 N.ar    1  UNL1       -0.3123
      2 C          62.8335   85.0166   12.4404 C.ar    1  UNL1        0.1213
      3 N          63.1864   84.0287   11.3682 N.ar    1  UNL1       -0.2309
      4 C          62.9513   82.6506   11.9120 C.ar    1  UNL1        0.0983
      5 C          63.1264   81.2894   11.3068 C.ar    1  UNL1        0.0206
      6 C          62.8034   80.0644   12.1098 C.ar    1  UNL1        0.0016
      7 C          62.3052   80.2006   13.5181 C.ar    1  UNL1        0.0016
      8 C          62.1301   81.5618   14.1234 C.ar    1  UNL1        0.0188
      9 C          62.4531   82.7868   13.3203 C.ar    1  UNL1        0.0787
     10 C          62.9189   86.5098   12.3262 C.3     1  UNL1        0.0729
     11 C          62.2648   87.2124   11.1736 C.3     1  UNL1        0.0103
     12 C          62.3502   88.7056   11.0594 C.3     1  UNL1        0.0178
     13 C          63.0897   89.4962   12.0978 C.3     1  UNL1        0.0722
     14 N          63.7437   88.7936   13.2503 N.3     1  UNL1       -0.2711
     15 C          64.4833   89.5841   14.2887 C.3     1  UNL1        0.0896
     16 C          63.6584   87.3003   13.3645 C.3     1  UNL1        0.0796
     17 C          61.9329   84.8400   14.9509 C.3     1  UNL1        0.1392
     18 C          62.8972   84.9502   16.0945 C.3     1  UNL1        0.1666
     19 O          62.3996   85.3097   17.4632 O.3     1  UNL1       -0.3517
     20 C          62.9576   87.8250   17.1285 C.3     1  UNL1        0.0346
     21 C          62.7009   86.6614   18.0396 C.3     1  UNL1        0.1423
@<TRIPOS>BOND
     1    20    21    1
     2    21    19    1
     3    19    18    1
     4    18    17    1
     5    17     1    1
     6     1     2   ar
     7     2    10    1
     8    10    11    1
     9    11    12    1
    10    12    13    1
    11    13    14    1
    12    14    15    1
    13    14    16    1
    14     2     3   ar
    15     3     4   ar
    16     4     5   ar
    17     5     6   ar
    18     6     7   ar
    19     7     8   ar
    20     8     9   ar
    21     9     1   ar
    22    16    10    1
    23     9     4   ar
