@<TRIPOS>MOLECULE
*****
 34 38 0 0 0
SMALL
GASTEIGER

@<TRIPOS>ATOM
      1 C          62.1482   95.1354   -1.4773 C.2     1  UNL1        0.2494
      2 O          62.0973   96.6341   -1.5147 O.2     1  UNL1       -0.2699
      3 N          61.6355   94.3974   -0.2763 N.am    1  UNL1       -0.2660
      4 C          61.6865   92.8987   -0.2388 C.3     1  UNL1        0.1160
      5 C          61.1738   92.1607    0.9622 C.3     1  UNL1        0.1197
      6 N          60.6102   92.9213    2.1258 N.am    1  UNL1       -0.2555
      7 C          60.5593   94.4199    2.0883 C.2     1  UNL1        0.2497
      8 O          59.9957   95.1805    3.2519 O.2     1  UNL1       -0.2727
      9 C          61.0719   95.1580    0.8873 C.3     1  UNL1        0.1799
     10 C          63.8390   92.8536   -4.9679 C.ar    1  UNL1        0.0685
     11 C          64.4088   92.6543   -3.5948 C.ar    1  UNL1        0.0104
     12 C          63.8452   93.4149   -2.4312 C.ar    1  UNL1        0.0052
     13 C          62.7118   94.3748   -2.6408 C.ar    1  UNL1        0.0536
     14 C          62.1420   94.5741   -4.0140 C.ar    1  UNL1        0.0052
     15 C          62.7056   93.8135   -5.1775 C.ar    1  UNL1        0.0104
     16 N          64.9662   91.3324   -7.2950 N.1     1  UNL1       -0.1908
     17 C          64.4026   92.0930   -6.1314 C.1     1  UNL1        0.1004
     18 C          60.0975   92.1832    3.3268 C.ar    1  UNL1        0.0541
     19 C          61.0458   91.4054    4.1903 C.ar    1  UNL1        0.0180
     20 C          60.5331   90.6673    5.3913 C.ar    1  UNL1        0.0382
     21 C          59.0721   90.7071    5.7288 C.ar    1  UNL1        0.1385
     22 C          58.1238   91.4848    4.8652 C.ar    1  UNL1        0.0382
     23 C          58.6365   92.2229    3.6643 C.ar    1  UNL1        0.0180
     24 O          58.5594   89.9689    6.9298 O.3     1  UNL1       -0.4791
     25 C          59.4188   88.9382    7.5999 C.3     1  UNL1        0.1687
     26 C          59.3666   87.5091    7.1472 C.3     1  UNL1        0.0609
     27 C          60.2260   86.4783    7.8173 C.3     1  UNL1        0.0758
     28 N          61.1375   86.8766    8.9400 N.3     1  UNL1       -0.2737
     29 C          61.1896   88.3057    9.3927 C.3     1  UNL1        0.0758
     30 C          60.3302   89.3365    8.7226 C.3     1  UNL1        0.0609
     31 C          61.9968   85.8459    9.6101 C.3     1  UNL1        0.0575
     32 C          63.0791   84.9108    9.1580 C.3     1  UNL1        0.0160
     33 C          63.2121   84.3881   10.5577 C.3     1  UNL1        0.0028
     34 C          62.1298   85.3231   11.0098 C.3     1  UNL1        0.0160
@<TRIPOS>BOND
     1    16    17    3
     2    17    10    1
     3    10    11   ar
     4    11    12   ar
     5    12    13   ar
     6    13     1    1
     7     1     2    2
     8     1     3   am
     9     3     4    1
    10     4     5    1
    11     5     6    1
    12     6    18    1
    13    18    19   ar
    14    19    20   ar
    15    20    21   ar
    16    21    24    1
    17    24    25    1
    18    25    26    1
    19    26    27    1
    20    27    28    1
    21    28    31    1
    22    31    32    1
    23    32    33    1
    24    33    34    1
    25    28    29    1
    26    29    30    1
    27    21    22   ar
    28    22    23   ar
    29     6     7   am
    30     7     8    2
    31     7     9    1
    32    13    14   ar
    33    14    15   ar
    34    15    10   ar
    35     9     3    1
    36    23    18   ar
    37    30    25    1
    38    34    31    1
@<TRIPOS>MOLECULE
*****
 34 38 0 0 0
SMALL
GASTEIGER

@<TRIPOS>ATOM
      1 C          61.3166   95.3749   -0.7685 C.2     1  UNL1        0.2494
      2 O          61.0892   96.8547   -0.6770 O.2     1  UNL1       -0.2699
      3 N          60.9882   94.4921    0.3989 N.am    1  UNL1       -0.2660
      4 C          61.2155   93.0122    0.3074 C.3     1  UNL1        0.1160
      5 C          60.8871   92.1294    1.4748 C.3     1  UNL1        0.1197
      6 N          60.3313   92.7264    2.7336 N.am    1  UNL1       -0.2555
      7 C          60.1039   94.2062    2.8251 C.2     1  UNL1        0.2497
      8 O          59.5481   94.8032    4.0839 O.2     1  UNL1       -0.2727
      9 C          60.4324   95.0891    1.6577 C.3     1  UNL1        0.1799
     10 C          62.9840   93.5838   -4.5450 C.ar    1  UNL1        0.0685
     11 C          63.8983   93.9057   -3.4003 C.ar    1  UNL1        0.0104
     12 C          63.3425   94.5027   -2.1414 C.ar    1  UNL1        0.0052
     13 C          61.8724   94.7778   -2.0273 C.ar    1  UNL1        0.0536
     14 C          60.9581   94.4560   -3.1720 C.ar    1  UNL1        0.0052
     15 C          61.5139   93.8589   -4.4309 C.ar    1  UNL1        0.0104
     16 N          64.0956   92.3898   -7.0627 N.1     1  UNL1       -0.1908
     17 C          63.5398   92.9868   -5.8038 C.1     1  UNL1        0.1004
     18 C          60.0029   91.8435    3.9010 C.ar    1  UNL1        0.0541
     19 C          61.0994   91.1245    4.6294 C.ar    1  UNL1        0.0180
     20 C          60.7709   90.2416    5.7967 C.ar    1  UNL1        0.0382
     21 C          59.3459   90.0778    6.2356 C.ar    1  UNL1        0.1385
     22 C          58.2494   90.7968    5.5072 C.ar    1  UNL1        0.0382
     23 C          58.5779   91.6796    4.3399 C.ar    1  UNL1        0.0180
     24 O          59.0175   89.1949    7.4030 O.3     1  UNL1       -0.4791
     25 C          59.9525   89.1206    8.5736 C.3     1  UNL1        0.1687
     26 C          60.0496   90.2719    9.5301 C.3     1  UNL1        0.0609
     27 C          60.9846   90.1976   10.7007 C.3     1  UNL1        0.0758
     28 N          61.8225   88.9720   10.9147 N.3     1  UNL1       -0.2737
     29 C          61.7254   87.8207    9.9582 C.3     1  UNL1        0.0758
     30 C          60.7903   87.8950    8.7876 C.3     1  UNL1        0.0609
     31 C          62.7574   88.8977   12.0853 C.3     1  UNL1        0.0575
     32 C          63.4868   87.7936   12.7918 C.3     1  UNL1        0.0160
     33 C          64.0797   88.7926   13.7408 C.3     1  UNL1        0.0028
     34 C          63.3504   89.8966   13.0343 C.3     1  UNL1        0.0160
@<TRIPOS>BOND
     1    16    17    3
     2    17    10    1
     3    10    11   ar
     4    11    12   ar
     5    12    13   ar
     6    13     1    1
     7     1     2    2
     8     1     3   am
     9     3     4    1
    10     4     5    1
    11     5     6    1
    12     6    18    1
    13    18    19   ar
    14    19    20   ar
    15    20    21   ar
    16    21    24    1
    17    24    25    1
    18    25    26    1
    19    26    27    1
    20    27    28    1
    21    28    31    1
    22    31    32    1
    23    32    33    1
    24    33    34    1
    25    28    29    1
    26    29    30    1
    27    21    22   ar
    28    22    23   ar
    29     6     7   am
    30     7     8    2
    31     7     9    1
    32    13    14   ar
    33    14    15   ar
    34    15    10   ar
    35     9     3    1
    36    23    18   ar
    37    30    25    1
    38    34    31    1
