@<TRIPOS>MOLECULE
*****
 36 39 0 0 0
SMALL
GASTEIGER

@<TRIPOS>ATOM
      1 N          61.5767   85.8860   11.6792 N.pl3   1  UNL1       -0.3148
      2 H          60.7923   85.6364   12.2194 H       1  UNL1        0.1520
      3 C          61.7077   87.2825   11.1477 C.2     1  UNL1        0.0450
      4 C          62.6536   88.2473   11.7991 C.2     1  UNL1        0.0577
      5 C          62.7847   89.6437   11.2676 C.2     1  UNL1        0.1962
      6 N          61.9699   90.0755   10.0845 N.2     1  UNL1       -0.0378
      7 C          61.0240   89.1108    9.4330 C.2     1  UNL1        0.3604
      8 N          60.0977   89.2497    8.2615 N.2     1  UNL1       -0.0343
      9 C          59.3941   87.9390    8.0689 C.2     1  UNL1        0.2321
     10 C          59.8856   86.9900    9.1215 C.2     1  UNL1        0.0421
     11 C          60.8929   87.7142    9.9646 C.3     1  UNL1        0.1734
     12 C          63.7307   90.6085   11.9192 C.ar    1  UNL1        0.0706
     13 C          64.1329   90.4134   13.3510 C.ar    1  UNL1        0.0083
     14 C          65.0788   91.3781   14.0025 C.ar    1  UNL1        0.0299
     15 C          65.6225   92.5380   13.2222 C.ar    1  UNL1        0.1424
     16 F          66.5684   93.5028   13.8736 F       1  UNL1       -0.2041
     17 C          65.2204   92.7332   11.7903 C.ar    1  UNL1        0.0594
     18 C          64.2744   91.7684   11.1388 C.ar    1  UNL1        0.1459
     19 F          63.8722   91.9635    9.7069 F       1  UNL1       -0.2040
     20 C          63.4048   84.2397   12.5145 C.ar    1  UNL1        0.0858
     21 C          64.4688   83.2234   12.2232 C.ar    1  UNL1        0.1046
     22 N          64.7687   82.8369   10.8051 N.ar    1  UNL1       -0.2421
     23 C          64.0046   83.4668    9.6785 C.ar    1  UNL1        0.1002
     24 C          62.9405   84.4832    9.9698 C.ar    1  UNL1        0.0354
     25 C          62.6407   84.8696   11.3878 C.ar    1  UNL1        0.0556
     26 N          64.1740   85.2454   14.7832 N.am    1  UNL1       -0.2995
     27 C          63.1050   84.6262   13.9325 C.2     1  UNL1        0.2486
     28 O          61.7360   84.3933   14.4999 O.2     1  UNL1       -0.2700
     29 H          65.0724   85.3982   14.4108 H       1  UNL1        0.1498
     30 C          63.8741   85.6318   16.2012 C.3     1  UNL1        0.1038
     31 C          62.6523   86.4913   17.7072 C.3     1  UNL1        0.0173
     32 C          63.3956   87.0183   16.5156 C.3     1  UNL1        0.0573
     33 C          64.1389   87.5451   15.3242 C.3     1  UNL1        0.0173
     34 N          62.9170   88.4046   16.8302 N.3     1  UNL1       -0.3219
     35 H          63.2851   89.0567   16.1375 H       1  UNL1        0.1188
     36 H          63.2431   88.6745   17.7582 H       1  UNL1        0.1188
@<TRIPOS>BOND
     1    31    32    1
     2    32    33    1
     3    32    34    1
     4    32    30    1
     5    30    26    1
     6    26    27   am
     7    27    28    2
     8    27    20    1
     9    20    21   ar
    10    21    22   ar
    11    22    23   ar
    12    23    24   ar
    13    24    25   ar
    14    25     1    1
    15     1     3    1
    16     3     4    2
    17     4     5    1
    18     5    12    1
    19    12    13   ar
    20    13    14   ar
    21    14    15   ar
    22    15    16    1
    23    15    17   ar
    24    17    18   ar
    25    18    19    1
    26     5     6    2
    27     6     7    1
    28     7     8    2
    29     8     9    1
    30     9    10    2
    31    10    11    1
    32    25    20   ar
    33    11     3    1
    34    18    12   ar
    35    11     7    1
    36    34    35    1
    37    34    36    1
    38    26    29    1
    39     1     2    1
@<TRIPOS>MOLECULE
*****
 36 39 0 0 0
SMALL
GASTEIGER

@<TRIPOS>ATOM
      1 N          61.8429   89.8015   12.1249 N.pl3   1  UNL1       -0.3148
      2 H          61.1367   90.0674   12.7572 H       1  UNL1        0.1520
      3 C          61.7077   88.5299   11.3408 C.2     1  UNL1        0.0450
      4 C          62.3078   87.2587   11.8641 C.2     1  UNL1        0.0577
      5 C          62.1726   85.9872   11.0801 C.2     1  UNL1        0.1962
      6 N          61.4372   85.9867    9.7727 N.2     1  UNL1       -0.0378
      7 C          60.8371   87.2579    9.2494 C.2     1  UNL1        0.3604
      8 N          60.0620   87.5627    8.0018 N.2     1  UNL1       -0.0343
      9 C          59.7182   89.0227    8.0149 C.2     1  UNL1        0.2321
     10 C          60.2808   89.6202    9.2705 C.2     1  UNL1        0.0421
     11 C          60.9723   88.5295   10.0334 C.3     1  UNL1        0.1734
     12 C          62.7728   84.7159   11.6035 C.ar    1  UNL1        0.0706
     13 C          62.6020   84.3444   13.0467 C.ar    1  UNL1        0.0083
     14 C          63.2021   83.0732   13.5700 C.ar    1  UNL1        0.0299
     15 C          63.9731   82.1735   12.6502 C.ar    1  UNL1        0.1424
     16 F          64.5732   80.9023   13.1734 F       1  UNL1       -0.2041
     17 C          64.1439   82.5450   11.2070 C.ar    1  UNL1        0.0594
     18 C          63.5438   83.8162   10.6836 C.ar    1  UNL1        0.1459
     19 F          63.7146   84.1878    9.2404 F       1  UNL1       -0.2040
     20 C          63.9716   90.9237   13.1043 C.ar    1  UNL1        0.0858
     21 C          65.1827   91.7902   12.9249 C.ar    1  UNL1        0.1046
     22 N          65.4764   92.4011   11.5867 N.ar    1  UNL1       -0.2421
     23 C          64.5589   92.1454   10.4280 C.ar    1  UNL1        0.1002
     24 C          63.3477   91.2789   10.6073 C.ar    1  UNL1        0.0354
     25 C          63.0541   90.6680   11.9455 C.ar    1  UNL1        0.0556
     26 N          63.7656   88.8266   14.6239 N.am    1  UNL1       -0.2995
     27 C          63.6780   90.3129   14.4425 C.2     1  UNL1        0.2486
     28 O          63.2967   91.1886   15.5992 O.2     1  UNL1       -0.2700
     29 H          64.0159   88.2519   13.8648 H       1  UNL1        0.1498
     30 C          63.4720   88.2157   15.9621 C.3     1  UNL1        0.1038
     31 C          64.5492   86.6934   14.9512 C.3     1  UNL1        0.0173
     32 C          63.6931   86.7484   16.1817 C.3     1  UNL1        0.0573
     33 C          62.8370   86.8035   17.4120 C.3     1  UNL1        0.0173
     34 N          63.9142   85.2811   16.4011 N.3     1  UNL1       -0.3219
     35 H          63.4155   84.9838   17.2397 H       1  UNL1        0.1188
     36 H          64.9115   85.1012   16.5169 H       1  UNL1        0.1188
@<TRIPOS>BOND
     1    31    32    1
     2    32    33    1
     3    32    34    1
     4    32    30    1
     5    30    26    1
     6    26    27   am
     7    27    28    2
     8    27    20    1
     9    20    21   ar
    10    21    22   ar
    11    22    23   ar
    12    23    24   ar
    13    24    25   ar
    14    25     1    1
    15     1     3    1
    16     3     4    2
    17     4     5    1
    18     5    12    1
    19    12    13   ar
    20    13    14   ar
    21    14    15   ar
    22    15    16    1
    23    15    17   ar
    24    17    18   ar
    25    18    19    1
    26     5     6    2
    27     6     7    1
    28     7     8    2
    29     8     9    1
    30     9    10    2
    31    10    11    1
    32    25    20   ar
    33    11     3    1
    34    18    12   ar
    35    11     7    1
    36    34    35    1
    37    34    36    1
    38    26    29    1
    39     1     2    1
@<TRIPOS>MOLECULE
*****
 36 39 0 0 0
SMALL
GASTEIGER

@<TRIPOS>ATOM
      1 N          64.7975   87.9313   14.7838 N.pl3   1  UNL1       -0.3148
      2 H          65.7692   87.8789   14.9326 H       1  UNL1        0.1520
      3 C          64.2548   88.7595   13.6570 C.2     1  UNL1        0.0450
      4 C          63.3247   88.1439   12.6541 C.2     1  UNL1        0.0577
      5 C          62.7821   88.9721   11.5274 C.2     1  UNL1        0.1962
      6 N          63.1696   90.4159   11.4035 N.2     1  UNL1       -0.0378
      7 C          64.0997   91.0315   12.4064 C.2     1  UNL1        0.3604
      8 N          64.6555   92.4182   12.5409 N.2     1  UNL1       -0.0343
      9 C          65.5417   92.4470   13.7508 C.2     1  UNL1        0.2321
     10 C          65.5335   91.0781   14.3641 C.2     1  UNL1        0.0421
     11 C          64.6423   90.2032   13.5332 C.3     1  UNL1        0.1734
     12 C          61.8518   88.3565   10.5244 C.ar    1  UNL1        0.0706
     13 C          62.0226   86.9205   10.1257 C.ar    1  UNL1        0.0083
     14 C          61.0924   86.3049    9.1228 C.ar    1  UNL1        0.0299
     15 C          59.9916   87.1253    8.5185 C.ar    1  UNL1        0.1424
     16 F          59.0614   86.5098    7.5156 F       1  UNL1       -0.2041
     17 C          59.8208   88.5612    8.9172 C.ar    1  UNL1        0.0594
     18 C          60.7510   89.1768    9.9201 C.ar    1  UNL1        0.1459
     19 F          60.5803   90.6128   10.3189 F       1  UNL1       -0.2040
     20 C          63.6668   85.7060   15.5047 C.ar    1  UNL1        0.0858
     21 C          62.7289   84.9575   16.4047 C.ar    1  UNL1        0.1046
     22 N          61.9836   85.6858   17.4838 N.ar    1  UNL1       -0.2421
     23 C          62.1763   87.1625   17.6627 C.ar    1  UNL1        0.1002
     24 C          63.1143   87.9111   16.7627 C.ar    1  UNL1        0.0354
     25 C          63.8595   87.1828   15.6838 C.ar    1  UNL1        0.0556
     26 N          63.6576   84.2729   13.3378 N.am    1  UNL1       -0.2995
     27 C          64.4120   84.9777   14.4258 C.2     1  UNL1        0.2486
     28 O          65.9119   84.9543   14.4349 O.2     1  UNL1       -0.2700
     29 H          62.6732   84.2883   13.3318 H       1  UNL1        0.1498
     30 C          64.4028   83.5446   12.2588 C.3     1  UNL1        0.1038
     31 C          63.4783   81.7244   12.8350 C.3     1  UNL1        0.0173
     32 C          63.7468   82.4105   11.5284 C.3     1  UNL1        0.0573
     33 C          64.0152   83.0965   10.2219 C.3     1  UNL1        0.0173
     34 N          63.0907   81.2763   10.7981 N.3     1  UNL1       -0.3219
     35 H          63.1141   81.4591    9.7949 H       1  UNL1        0.1188
     36 H          62.1220   81.1892   11.1053 H       1  UNL1        0.1188
@<TRIPOS>BOND
     1    31    32    1
     2    32    33    1
     3    32    34    1
     4    32    30    1
     5    30    26    1
     6    26    27   am
     7    27    28    2
     8    27    20    1
     9    20    21   ar
    10    21    22   ar
    11    22    23   ar
    12    23    24   ar
    13    24    25   ar
    14    25     1    1
    15     1     3    1
    16     3     4    2
    17     4     5    1
    18     5    12    1
    19    12    13   ar
    20    13    14   ar
    21    14    15   ar
    22    15    16    1
    23    15    17   ar
    24    17    18   ar
    25    18    19    1
    26     5     6    2
    27     6     7    1
    28     7     8    2
    29     8     9    1
    30     9    10    2
    31    10    11    1
    32    25    20   ar
    33    11     3    1
    34    18    12   ar
    35    11     7    1
    36    34    35    1
    37    34    36    1
    38    26    29    1
    39     1     2    1
@<TRIPOS>MOLECULE
*****
 36 39 0 0 0
SMALL
GASTEIGER

@<TRIPOS>ATOM
      1 N          64.2583   87.9481   13.7993 N.pl3   1  UNL1       -0.3148
      2 H          65.1358   88.2981   14.0762 H       1  UNL1        0.1520
      3 C          63.6993   86.7206   14.4557 C.2     1  UNL1        0.0450
      4 C          63.5994   85.4376   13.6851 C.2     1  UNL1        0.0577
      5 C          63.0404   84.2101   14.3414 C.2     1  UNL1        0.1962
      6 N          62.5814   84.2656   15.7685 N.2     1  UNL1       -0.0378
      7 C          62.6814   85.5486   16.5390 C.2     1  UNL1        0.3604
      8 N          62.3116   85.9043   17.9486 N.2     1  UNL1       -0.0343
      9 C          62.6420   87.3516   18.1633 C.2     1  UNL1        0.2321
     10 C          63.2160   87.8904   16.8865 C.2     1  UNL1        0.0421
     11 C          63.2404   86.7761   15.8827 C.3     1  UNL1        0.1734
     12 C          62.9405   82.9270   13.5708 C.ar    1  UNL1        0.0706
     13 C          62.5202   81.6657   14.2654 C.ar    1  UNL1        0.0083
     14 C          62.4202   80.3827   13.4949 C.ar    1  UNL1        0.0299
     15 C          62.7405   80.3610   12.0296 C.ar    1  UNL1        0.1424
     16 F          62.6405   79.0780   11.2590 F       1  UNL1       -0.2041
     17 C          63.1607   81.6223   11.3350 C.ar    1  UNL1        0.0594
     18 C          63.2607   82.9053   12.1055 C.ar    1  UNL1        0.1459
     19 F          63.6810   84.1666   11.4110 F       1  UNL1       -0.2040
     20 C          63.4040   90.1401   12.6970 C.ar    1  UNL1        0.0858
     21 C          62.6260   90.8343   11.6187 C.ar    1  UNL1        0.1046
     22 N          61.9243   90.0305   10.5642 N.ar    1  UNL1       -0.2421
     23 C          62.0006   88.5328   10.5882 C.ar    1  UNL1        0.1002
     24 C          62.7786   87.8385   11.6666 C.ar    1  UNL1        0.0354
     25 C          63.4803   88.6422   12.7209 C.ar    1  UNL1        0.0556
     26 N          65.4245   91.5906   13.4477 N.am    1  UNL1       -0.2995
     27 C          64.1057   90.9439   13.7514 C.2     1  UNL1        0.2486
     28 O          63.4884   91.1008   15.1095 O.2     1  UNL1       -0.2700
     29 H          65.8296   91.4876   12.5563 H       1  UNL1        0.1498
     30 C          66.1262   92.3943   14.5020 C.3     1  UNL1        0.1038
     31 C          67.5590   92.8178   16.0078 C.3     1  UNL1        0.0173
     32 C          67.6247   92.3976   14.5694 C.3     1  UNL1        0.0573
     33 C          67.6903   91.9774   13.1310 C.3     1  UNL1        0.0173
     34 N          69.1232   92.4010   14.6368 N.3     1  UNL1       -0.3219
     35 H          69.5049   92.1323   13.7299 H       1  UNL1        0.1188
     36 H          69.4331   91.7369   15.3464 H       1  UNL1        0.1188
@<TRIPOS>BOND
     1    31    32    1
     2    32    33    1
     3    32    34    1
     4    32    30    1
     5    30    26    1
     6    26    27   am
     7    27    28    2
     8    27    20    1
     9    20    21   ar
    10    21    22   ar
    11    22    23   ar
    12    23    24   ar
    13    24    25   ar
    14    25     1    1
    15     1     3    1
    16     3     4    2
    17     4     5    1
    18     5    12    1
    19    12    13   ar
    20    13    14   ar
    21    14    15   ar
    22    15    16    1
    23    15    17   ar
    24    17    18   ar
    25    18    19    1
    26     5     6    2
    27     6     7    1
    28     7     8    2
    29     8     9    1
    30     9    10    2
    31    10    11    1
    32    25    20   ar
    33    11     3    1
    34    18    12   ar
    35    11     7    1
    36    34    35    1
    37    34    36    1
    38    26    29    1
    39     1     2    1
@<TRIPOS>MOLECULE
*****
 36 39 0 0 0
SMALL
GASTEIGER

@<TRIPOS>ATOM
      1 N          64.5155   86.2001   14.0442 N.pl3   1  UNL1       -0.3148
      2 H          65.4797   86.3051   13.8750 H       1  UNL1        0.1520
      3 C          63.6481   85.5081   13.0348 C.2     1  UNL1        0.0450
      4 C          62.8769   86.3131   12.0312 C.2     1  UNL1        0.0577
      5 C          62.0094   85.6212   11.0219 C.2     1  UNL1        0.1962
      6 N          61.9131   84.1242   11.0162 N.2     1  UNL1       -0.0378
      7 C          62.6843   83.3193   12.0198 C.2     1  UNL1        0.3604
      8 N          62.7868   81.8415   12.2559 N.2     1  UNL1       -0.0343
      9 C          63.7177   81.6202   13.4111 C.2     1  UNL1        0.2321
     10 C          64.1905   82.9611   13.8890 C.2     1  UNL1        0.0421
     11 C          63.5518   84.0112   13.0292 C.3     1  UNL1        0.1734
     12 C          61.2382   86.4262   10.0183 C.ar    1  UNL1        0.0706
     13 C          60.8714   85.8225    8.6950 C.ar    1  UNL1        0.0083
     14 C          60.1002   86.6274    7.6914 C.ar    1  UNL1        0.0299
     15 C          59.6958   88.0361    8.0110 C.ar    1  UNL1        0.1424
     16 F          58.9246   88.8411    7.0074 F       1  UNL1       -0.2041
     17 C          60.0626   88.6398    9.3342 C.ar    1  UNL1        0.0594
     18 C          60.8338   87.8348   10.3379 C.ar    1  UNL1        0.1459
     19 F          61.2007   88.4385   11.6612 F       1  UNL1       -0.2040
     20 C          63.7751   88.2120   15.5118 C.ar    1  UNL1        0.0858
     21 C          63.1736   88.7438   16.7788 C.ar    1  UNL1        0.1046
     22 N          62.7110   87.7956   17.8451 N.ar    1  UNL1       -0.2421
     23 C          62.8499   86.3157   17.6445 C.ar    1  UNL1        0.1002
     24 C          63.4514   85.7838   16.3774 C.ar    1  UNL1        0.0354
     25 C          63.9140   86.7319   15.3112 C.ar    1  UNL1        0.0556
     26 N          65.1353   90.3081   14.8007 N.am    1  UNL1       -0.2995
     27 C          64.2377   89.1601   14.4455 C.2     1  UNL1        0.2486
     28 O          63.8026   88.9602   13.0239 O.2     1  UNL1       -0.2700
     29 H          65.4209   90.4393   15.7337 H       1  UNL1        0.1498
     30 C          65.5979   91.2563   13.7344 C.3     1  UNL1        0.1038
     31 C          65.9292   92.2953   15.5539 C.3     1  UNL1        0.0173
     32 C          66.0115   92.6513   14.0991 C.3     1  UNL1        0.0573
     33 C          66.0939   93.0073   12.6444 C.3     1  UNL1        0.0173
     34 N          66.4251   94.0463   14.4639 N.3     1  UNL1       -0.3219
     35 H          66.5716   94.5907   13.6139 H       1  UNL1        0.1188
     36 H          67.2917   94.0145   15.0009 H       1  UNL1        0.1188
@<TRIPOS>BOND
     1    31    32    1
     2    32    33    1
     3    32    34    1
     4    32    30    1
     5    30    26    1
     6    26    27   am
     7    27    28    2
     8    27    20    1
     9    20    21   ar
    10    21    22   ar
    11    22    23   ar
    12    23    24   ar
    13    24    25   ar
    14    25     1    1
    15     1     3    1
    16     3     4    2
    17     4     5    1
    18     5    12    1
    19    12    13   ar
    20    13    14   ar
    21    14    15   ar
    22    15    16    1
    23    15    17   ar
    24    17    18   ar
    25    18    19    1
    26     5     6    2
    27     6     7    1
    28     7     8    2
    29     8     9    1
    30     9    10    2
    31    10    11    1
    32    25    20   ar
    33    11     3    1
    34    18    12   ar
    35    11     7    1
    36    34    35    1
    37    34    36    1
    38    26    29    1
    39     1     2    1
@<TRIPOS>MOLECULE
*****
 36 39 0 0 0
SMALL
GASTEIGER

@<TRIPOS>ATOM
      1 N          63.3928   88.9903   12.2752 N.pl3   1  UNL1       -0.3148
      2 H          63.7896   88.1222   12.5162 H       1  UNL1        0.1520
      3 C          64.0558   90.2642   12.7085 C.2     1  UNL1        0.0450
      4 C          64.7088   91.1532   11.6920 C.2     1  UNL1        0.0577
      5 C          65.3718   92.4270   12.1252 C.2     1  UNL1        0.1962
      6 N          65.3819   92.8119   13.5750 N.2     1  UNL1       -0.0378
      7 C          64.7290   91.9229   14.5915 C.2     1  UNL1        0.3604
      8 N          64.5809   92.0397   16.0796 N.2     1  UNL1       -0.0343
      9 C          63.8263   90.8380   16.5660 C.2     1  UNL1        0.2321
     10 C          63.5081   89.9785   15.3786 C.2     1  UNL1        0.0421
     11 C          64.0659   90.6490   14.1582 C.3     1  UNL1        0.1734
     12 C          66.0248   93.3160   11.1086 C.ar    1  UNL1        0.0706
     13 C          65.4664   94.6816   10.8375 C.ar    1  UNL1        0.0083
     14 C          66.1193   95.5706    9.8210 C.ar    1  UNL1        0.0299
     15 C          67.3306   95.0940    9.0756 C.ar    1  UNL1        0.1424
     16 F          67.9836   95.9830    8.0590 F       1  UNL1       -0.2041
     17 C          67.8890   93.7285    9.3467 C.ar    1  UNL1        0.0594
     18 C          67.2361   92.8395   10.3632 C.ar    1  UNL1        0.1459
     19 F          67.7944   91.4739   10.6343 F       1  UNL1       -0.2040
     20 C          61.5648   87.7813   10.8800 C.ar    1  UNL1        0.0858
     21 C          60.2972   87.8302   10.0796 C.ar    1  UNL1        0.1046
     22 N          59.5899   89.1370    9.8740 N.ar    1  UNL1       -0.2421
     23 C          60.1502   90.3947   10.4687 C.ar    1  UNL1        0.1002
     24 C          61.4179   90.3459   11.2692 C.ar    1  UNL1        0.0354
     25 C          62.1252   89.0392   11.4748 C.ar    1  UNL1        0.0556
     26 N          62.5699   85.9935   12.4747 N.am    1  UNL1       -0.2995
     27 C          62.2720   86.4746   11.0857 C.2     1  UNL1        0.2486
     28 O          62.6813   85.6489    9.9020 O.2     1  UNL1       -0.2700
     29 H          62.3013   86.5354   13.2515 H       1  UNL1        0.1498
     30 C          63.2771   84.6867   12.6804 C.3     1  UNL1        0.1038
     31 C          64.0724   85.9225   14.2102 C.3     1  UNL1        0.0173
     32 C          64.0610   84.4476   13.9368 C.3     1  UNL1        0.0573
     33 C          64.0495   82.9729   13.6633 C.3     1  UNL1        0.0173
     34 N          64.8448   84.2086   15.1931 N.3     1  UNL1       -0.3219
     35 H          65.0151   83.2089   15.3026 H       1  UNL1        0.1188
     36 H          64.3161   84.5532   15.9945 H       1  UNL1        0.1188
@<TRIPOS>BOND
     1    31    32    1
     2    32    33    1
     3    32    34    1
     4    32    30    1
     5    30    26    1
     6    26    27   am
     7    27    28    2
     8    27    20    1
     9    20    21   ar
    10    21    22   ar
    11    22    23   ar
    12    23    24   ar
    13    24    25   ar
    14    25     1    1
    15     1     3    1
    16     3     4    2
    17     4     5    1
    18     5    12    1
    19    12    13   ar
    20    13    14   ar
    21    14    15   ar
    22    15    16    1
    23    15    17   ar
    24    17    18   ar
    25    18    19    1
    26     5     6    2
    27     6     7    1
    28     7     8    2
    29     8     9    1
    30     9    10    2
    31    10    11    1
    32    25    20   ar
    33    11     3    1
    34    18    12   ar
    35    11     7    1
    36    34    35    1
    37    34    36    1
    38    26    29    1
    39     1     2    1
@<TRIPOS>MOLECULE
*****
 36 39 0 0 0
SMALL
GASTEIGER

@<TRIPOS>ATOM
      1 N          63.2900   91.0332   12.8698 N.pl3   1  UNL1       -0.3148
      2 H          62.4018   91.3882   12.6371 H       1  UNL1        0.1520
      3 C          64.4598   91.9636   12.9969 C.2     1  UNL1        0.0450
      4 C          64.9445   92.7269   11.8001 C.2     1  UNL1        0.0577
      5 C          66.1142   93.6572   11.9272 C.2     1  UNL1        0.1962
      6 N          66.7993   93.8242   13.2511 N.2     1  UNL1       -0.0378
      7 C          66.3146   93.0609   14.4479 C.2     1  UNL1        0.3604
      8 N          66.7862   93.0210   15.8713 N.2     1  UNL1       -0.0343
      9 C          65.9078   92.0660   16.6239 C.2     1  UNL1        0.2321
     10 C          64.8934   91.5156   15.6657 C.2     1  UNL1        0.0421
     11 C          65.1449   92.1306   14.3208 C.3     1  UNL1        0.1734
     12 C          66.5989   94.4205   10.7303 C.ar    1  UNL1        0.0706
     13 C          66.4041   95.9061   10.6589 C.ar    1  UNL1        0.0083
     14 C          66.8888   96.6695    9.4621 C.ar    1  UNL1        0.0299
     15 C          67.5682   95.9472    8.3366 C.ar    1  UNL1        0.1424
     16 F          68.0529   96.7105    7.1398 F       1  UNL1       -0.2041
     17 C          67.7630   94.4616    8.4080 C.ar    1  UNL1        0.0594
     18 C          67.2784   93.6983    9.6048 C.ar    1  UNL1        0.1459
     19 F          67.4731   92.2127    9.6763 F       1  UNL1       -0.2040
     20 C          62.9852   88.5784   12.0754 C.ar    1  UNL1        0.0858
     21 C          63.1688   87.1072   12.3029 C.ar    1  UNL1        0.1046
     22 N          63.8410   86.6195   13.5521 N.ar    1  UNL1       -0.2421
     23 C          64.3294   87.6030   14.5738 C.ar    1  UNL1        0.1002
     24 C          64.1458   89.0744   14.3464 C.ar    1  UNL1        0.0354
     25 C          63.4737   89.5620   13.0972 C.ar    1  UNL1        0.0556
     26 N          61.1525   88.3075   10.2540 N.am    1  UNL1       -0.2995
     27 C          62.3131   89.0661   10.8262 C.2     1  UNL1        0.2486
     28 O          62.8017   90.3124   10.1493 O.2     1  UNL1       -0.2700
     29 H          60.8319   87.4896   10.6983 H       1  UNL1        0.1498
     30 C          60.4804   88.7952    9.0048 C.3     1  UNL1        0.1038
     31 C          59.3296   88.9625    7.2307 C.3     1  UNL1        0.0173
     32 C          59.7373   87.8315    8.1277 C.3     1  UNL1        0.0573
     33 C          60.1450   86.7006    9.0248 C.3     1  UNL1        0.0173
     34 N          58.9942   86.8679    7.2506 N.3     1  UNL1       -0.3219
     35 H          59.0872   85.9244    7.6269 H       1  UNL1        0.1188
     36 H          59.3822   86.8977    6.3078 H       1  UNL1        0.1188
@<TRIPOS>BOND
     1    31    32    1
     2    32    33    1
     3    32    34    1
     4    32    30    1
     5    30    26    1
     6    26    27   am
     7    27    28    2
     8    27    20    1
     9    20    21   ar
    10    21    22   ar
    11    22    23   ar
    12    23    24   ar
    13    24    25   ar
    14    25     1    1
    15     1     3    1
    16     3     4    2
    17     4     5    1
    18     5    12    1
    19    12    13   ar
    20    13    14   ar
    21    14    15   ar
    22    15    16    1
    23    15    17   ar
    24    17    18   ar
    25    18    19    1
    26     5     6    2
    27     6     7    1
    28     7     8    2
    29     8     9    1
    30     9    10    2
    31    10    11    1
    32    25    20   ar
    33    11     3    1
    34    18    12   ar
    35    11     7    1
    36    34    35    1
    37    34    36    1
    38    26    29    1
    39     1     2    1
@<TRIPOS>MOLECULE
*****
 36 39 0 0 0
SMALL
GASTEIGER

@<TRIPOS>ATOM
      1 N          63.2901   88.0289   12.5703 N.pl3   1  UNL1       -0.3148
      2 H          63.7599   87.1921   12.7902 H       1  UNL1        0.1520
      3 C          63.7157   89.3179   13.2086 C.2     1  UNL1        0.0450
      4 C          64.3259   90.4033   12.3723 C.2     1  UNL1        0.0577
      5 C          64.7514   91.6923   13.0105 C.2     1  UNL1        0.1962
      6 N          64.5668   91.8959   14.4852 N.2     1  UNL1       -0.0378
      7 C          63.9565   90.8105   15.3215 C.2     1  UNL1        0.3604
      8 N          63.6516   90.7246   16.7876 N.2     1  UNL1       -0.0343
      9 C          63.0375   89.3825   17.0555 C.2     1  UNL1        0.2321
     10 C          62.9630   88.6389   15.7549 C.2     1  UNL1        0.0421
     11 C          63.5310   89.5215   14.6832 C.3     1  UNL1        0.1734
     12 C          65.3617   92.7778   12.1741 C.ar    1  UNL1        0.0706
     13 C          65.2249   92.7405   10.6808 C.ar    1  UNL1        0.0083
     14 C          65.8351   93.8259    9.8445 C.ar    1  UNL1        0.0299
     15 C          66.5822   94.9486   10.5015 C.ar    1  UNL1        0.1424
     16 F          67.1924   96.0340    9.6652 F       1  UNL1       -0.2041
     17 C          66.7190   94.9858   11.9947 C.ar    1  UNL1        0.0594
     18 C          66.1088   93.9004   12.8311 C.ar    1  UNL1        0.1459
     19 F          66.2455   93.9375   14.3244 F       1  UNL1       -0.2040
     20 C          61.7305   86.7276   10.9504 C.ar    1  UNL1        0.0858
     21 C          60.5892   86.7136    9.9771 C.ar    1  UNL1        0.1046
     22 N          59.8662   87.9867    9.6506 N.ar    1  UNL1       -0.2421
     23 C          60.2846   89.2738   10.2972 C.ar    1  UNL1        0.1002
     24 C          61.4259   89.2879   11.2705 C.ar    1  UNL1        0.0354
     25 C          62.1488   88.0149   11.5971 C.ar    1  UNL1        0.0556
     26 N          62.4844   84.9508   12.6894 N.am    1  UNL1       -0.2995
     27 C          62.4534   85.4546   11.2769 C.2     1  UNL1        0.2486
     28 O          63.1452   84.6852   10.1908 O.2     1  UNL1       -0.2700
     29 H          62.0303   85.4558   13.4022 H       1  UNL1        0.1498
     30 C          63.2073   83.6777   13.0159 C.3     1  UNL1        0.1038
     31 C          62.4559   81.7285   12.6475 C.3     1  UNL1        0.0173
     32 C          62.5351   82.6255   13.8472 C.3     1  UNL1        0.0573
     33 C          62.6144   83.5224   15.0468 C.3     1  UNL1        0.0173
     34 N          61.8629   81.5732   14.6784 N.3     1  UNL1       -0.3219
     35 H          61.7614   81.9097   15.6359 H       1  UNL1        0.1188
     36 H          62.4284   80.7243   14.6745 H       1  UNL1        0.1188
@<TRIPOS>BOND
     1    31    32    1
     2    32    33    1
     3    32    34    1
     4    32    30    1
     5    30    26    1
     6    26    27   am
     7    27    28    2
     8    27    20    1
     9    20    21   ar
    10    21    22   ar
    11    22    23   ar
    12    23    24   ar
    13    24    25   ar
    14    25     1    1
    15     1     3    1
    16     3     4    2
    17     4     5    1
    18     5    12    1
    19    12    13   ar
    20    13    14   ar
    21    14    15   ar
    22    15    16    1
    23    15    17   ar
    24    17    18   ar
    25    18    19    1
    26     5     6    2
    27     6     7    1
    28     7     8    2
    29     8     9    1
    30     9    10    2
    31    10    11    1
    32    25    20   ar
    33    11     3    1
    34    18    12   ar
    35    11     7    1
    36    34    35    1
    37    34    36    1
    38    26    29    1
    39     1     2    1
@<TRIPOS>MOLECULE
*****
 36 39 0 0 0
SMALL
GASTEIGER

@<TRIPOS>ATOM
      1 N          63.7693   87.2524   13.8374 N.pl3   1  UNL1       -0.3148
      2 H          63.9200   86.5333   13.1820 H       1  UNL1        0.1520
      3 C          63.9906   88.6831   13.4450 C.2     1  UNL1        0.0450
      4 C          65.0677   89.4859   14.1124 C.2     1  UNL1        0.0577
      5 C          65.2890   90.9165   13.7201 C.2     1  UNL1        0.1962
      6 N          64.4332   91.5447   12.6603 N.2     1  UNL1       -0.0378
      7 C          63.3561   90.7420   11.9929 C.2     1  UNL1        0.3604
      8 N          62.3631   91.0882   10.9233 N.2     1  UNL1       -0.0343
      9 C          61.5281   89.8714   10.6546 C.2     1  UNL1        0.2321
     10 C          62.0050   88.7732   11.5581 C.2     1  UNL1        0.0421
     11 C          63.1348   89.3112   12.3853 C.3     1  UNL1        0.1734
     12 C          66.3662   91.7193   14.3875 C.ar    1  UNL1        0.0706
     13 C          67.7040   91.8747   13.7271 C.ar    1  UNL1        0.0083
     14 C          68.7812   92.6774   14.3945 C.ar    1  UNL1        0.0299
     15 C          68.5205   93.3247   15.7223 C.ar    1  UNL1        0.1424
     16 F          69.5976   94.1274   16.3898 F       1  UNL1       -0.2041
     17 C          67.1827   93.1693   16.3827 C.ar    1  UNL1        0.0594
     18 C          66.1056   92.3666   15.7153 C.ar    1  UNL1        0.1459
     19 F          64.7677   92.2111   16.3757 F       1  UNL1       -0.2040
     20 C          62.8201   85.5379   15.5431 C.ar    1  UNL1        0.0858
     21 C          62.3693   85.2027   16.9339 C.ar    1  UNL1        0.1046
     22 N          62.4169   86.2468   18.0099 N.ar    1  UNL1       -0.2421
     23 C          62.9153   87.6260   17.6950 C.ar    1  UNL1        0.1002
     24 C          63.3662   87.9613   16.3041 C.ar    1  UNL1        0.0354
     25 C          63.3185   86.9172   15.2282 C.ar    1  UNL1        0.0556
     26 N          63.4850   83.1877   14.6574 N.am    1  UNL1       -0.2995
     27 C          62.7724   84.4938   14.4672 C.2     1  UNL1        0.2486
     28 O          62.0121   84.7559   13.2009 O.2     1  UNL1       -0.2700
     29 H          63.9840   83.0157   15.4885 H       1  UNL1        0.1498
     30 C          63.4374   82.1436   13.5816 C.3     1  UNL1        0.1038
     31 C          63.1104   81.4938   11.5889 C.3     1  UNL1        0.0173
     32 C          64.1022   82.3965   12.2609 C.3     1  UNL1        0.0573
     33 C          65.0939   83.2991   12.9329 C.3     1  UNL1        0.0173
     34 N          64.7670   82.6494   10.9402 N.3     1  UNL1       -0.3219
     35 H          65.5535   83.2854   11.0717 H       1  UNL1        0.1188
     36 H          64.0956   83.0675   10.2962 H       1  UNL1        0.1188
@<TRIPOS>BOND
     1    31    32    1
     2    32    33    1
     3    32    34    1
     4    32    30    1
     5    30    26    1
     6    26    27   am
     7    27    28    2
     8    27    20    1
     9    20    21   ar
    10    21    22   ar
    11    22    23   ar
    12    23    24   ar
    13    24    25   ar
    14    25     1    1
    15     1     3    1
    16     3     4    2
    17     4     5    1
    18     5    12    1
    19    12    13   ar
    20    13    14   ar
    21    14    15   ar
    22    15    16    1
    23    15    17   ar
    24    17    18   ar
    25    18    19    1
    26     5     6    2
    27     6     7    1
    28     7     8    2
    29     8     9    1
    30     9    10    2
    31    10    11    1
    32    25    20   ar
    33    11     3    1
    34    18    12   ar
    35    11     7    1
    36    34    35    1
    37    34    36    1
    38    26    29    1
    39     1     2    1
