@<TRIPOS>MOLECULE
*****
 40 43 0 0 0
SMALL
GASTEIGER

@<TRIPOS>ATOM
      1 N          61.6381   87.8437   11.4798 N.ar    1  UNL1       -0.2464
      2 N          62.2710   86.7976   12.3488 N.ar    1  UNL1       -0.1690
      3 C          62.2365   85.4949   11.6058 C.ar    1  UNL1        0.1024
      4 C          61.5823   85.7360   10.2776 C.ar    1  UNL1        0.0396
      5 C          61.2125   87.1876   10.1998 C.ar    1  UNL1        0.0798
      6 C          62.7637   84.1818   12.1036 C.ar    1  UNL1        0.0211
      7 C          63.3839   84.0906   13.4662 C.ar    1  UNL1        0.0130
      8 C          63.9111   82.7775   13.9640 C.ar    1  UNL1        0.0586
      9 CL         64.5313   82.6863   15.3267 Cl      1  UNL1       -0.0822
     10 C          63.8180   81.5555   13.0991 C.ar    1  UNL1        0.0228
     11 C          63.1978   81.6467   11.7364 C.ar    1  UNL1        0.0586
     12 CL         63.1047   80.4247   10.8715 Cl      1  UNL1       -0.0822
     13 C          62.6706   82.9598   11.2386 C.ar    1  UNL1        0.0130
     14 C          60.5358   87.8643    9.0448 C.ar    1  UNL1        0.0176
     15 C          60.5328   89.3613    8.9496 C.ar    1  UNL1        0.0046
     16 C          59.8561   90.0379    7.7945 C.ar    1  UNL1        0.0372
     17 C          59.1824   89.2177    6.7345 C.ar    1  UNL1        0.1468
     18 C          59.1855   87.7207    6.8298 C.ar    1  UNL1        0.0372
     19 C          59.8621   87.0441    7.9848 C.ar    1  UNL1        0.0046
     20 O          58.5058   89.8944    5.5795 O.3     1  UNL1       -0.4045
     21 C          58.8937   91.2920    5.1973 C.3     1  UNL1        0.5753
     22 F          59.2817   92.6897    4.8150 F       1  UNL1       -0.1328
     23 F          57.4733   91.7371    5.3828 F       1  UNL1       -0.1328
     24 F          60.3141   90.8470    5.0117 F       1  UNL1       -0.1328
     25 C          61.4618   89.2917   11.8294 C.3     1  UNL1        0.1538
     26 C          64.8708   92.1741   11.2637 C.ar    1  UNL1        0.0533
     27 C          63.9731   91.8384   10.1098 C.ar    1  UNL1        0.0042
     28 C          62.8368   90.8776   10.2984 C.ar    1  UNL1       -0.0022
     29 C          62.5981   90.2525   11.6409 C.ar    1  UNL1        0.0021
     30 C          63.4958   90.5882   12.7948 C.ar    1  UNL1       -0.0022
     31 C          64.6322   91.5490   12.6062 C.ar    1  UNL1        0.0042
     32 N          66.1791   93.8453    9.7652 N.am    1  UNL1       -0.3005
     33 C          66.0072   93.1350   11.0751 C.2     1  UNL1        0.2459
     34 O          66.9716   93.3854   12.1963 O.2     1  UNL1       -0.2701
     35 H          65.5462   93.6810    9.0293 H       1  UNL1        0.1498
     36 C          67.3154   94.8061    9.5766 C.3     1  UNL1        0.0956
     37 C          67.2314   96.1892   10.1513 C.3     1  UNL1        0.0629
     38 O          66.0168   96.8550   12.3493 O.co2   1  UNL1       -0.5491
     39 C          65.9889   96.6300   10.8665 C.2     1  UNL1        0.0520
     40 O          64.7183   96.8457   10.0990 O.co2   1  UNL1       -0.5491
@<TRIPOS>UNITY_ATOM_ATTR
38 1
charge -1
@<TRIPOS>BOND
     1    38    39   ar
     2    39    40   ar
     3    39    37    1
     4    37    36    1
     5    36    32    1
     6    32    33   am
     7    33    34    2
     8    33    26    1
     9    26    27   ar
    10    27    28   ar
    11    28    29   ar
    12    29    25    1
    13    25     1    1
    14     1     2   ar
    15     2     3   ar
    16     3     6    1
    17     6     7   ar
    18     7     8   ar
    19     8     9    1
    20     8    10   ar
    21    10    11   ar
    22    11    12    1
    23    11    13   ar
    24     3     4   ar
    25     4     5   ar
    26     5    14    1
    27    14    15   ar
    28    15    16   ar
    29    16    17   ar
    30    17    20    1
    31    20    21    1
    32    21    22    1
    33    21    23    1
    34    21    24    1
    35    17    18   ar
    36    18    19   ar
    37    29    30   ar
    38    30    31   ar
    39    31    26   ar
    40     5     1   ar
    41    19    14   ar
    42    13     6   ar
    43    32    35    1
@<TRIPOS>MOLECULE
*****
 40 43 0 0 0
SMALL
GASTEIGER

@<TRIPOS>ATOM
      1 N          61.6728   87.9463   11.4759 N.ar    1  UNL1       -0.2464
      2 N          62.3123   86.9044   12.3451 N.ar    1  UNL1       -0.1690
      3 C          62.2572   85.5947   11.6158 C.ar    1  UNL1        0.1024
      4 C          61.5837   85.8272   10.2958 C.ar    1  UNL1        0.0396
      5 C          61.2224   87.2805   10.2093 C.ar    1  UNL1        0.0798
      6 C          62.7834   84.2830   12.1183 C.ar    1  UNL1        0.0211
      7 C          62.7038   83.0615   11.2515 C.ar    1  UNL1        0.0130
      8 C          63.2300   81.7497   11.7539 C.ar    1  UNL1        0.0586
      9 CL         63.1504   80.5281   10.8871 Cl      1  UNL1       -0.0822
     10 C          63.8356   81.6595   13.1232 C.ar    1  UNL1        0.0228
     11 C          63.9151   82.8811   13.9900 C.ar    1  UNL1        0.0586
     12 CL         64.5208   82.7909   15.3594 Cl      1  UNL1       -0.0822
     13 C          63.3890   84.1928   13.4876 C.ar    1  UNL1        0.0130
     14 C          60.5321   87.9504    9.0584 C.ar    1  UNL1        0.0176
     15 C          59.9373   87.1243    7.9568 C.ar    1  UNL1        0.0046
     16 C          59.2470   87.7944    6.8059 C.ar    1  UNL1        0.0372
     17 C          59.1515   89.2906    6.7566 C.ar    1  UNL1        0.1468
     18 C          59.7463   90.1167    7.8583 C.ar    1  UNL1        0.0372
     19 C          60.4367   89.4466    9.0092 C.ar    1  UNL1        0.0046
     20 O          58.4612   89.9605    5.6058 O.3     1  UNL1       -0.4045
     21 C          58.8737   91.3396    5.1837 C.3     1  UNL1        0.5753
     22 F          59.2862   92.7186    4.7616 F       1  UNL1       -0.1328
     23 F          57.4523   91.8026    5.3072 F       1  UNL1       -0.1328
     24 F          60.2951   90.8766    5.0602 F       1  UNL1       -0.1328
     25 C          61.5118   89.3988   11.8138 C.3     1  UNL1        0.1538
     26 C          64.9588   92.2357   11.2483 C.ar    1  UNL1        0.0533
     27 C          64.7335   91.5855   12.5812 C.ar    1  UNL1        0.0042
     28 C          63.5845   90.6399   12.7696 C.ar    1  UNL1       -0.0022
     29 C          62.6608   90.3444   11.6253 C.ar    1  UNL1        0.0021
     30 C          62.8861   90.9947   10.2924 C.ar    1  UNL1       -0.0022
     31 C          64.0351   91.9404   10.1040 C.ar    1  UNL1        0.0042
     32 N          66.5717   93.5320    9.6772 N.am    1  UNL1       -0.3005
     33 C          66.1079   93.1814   11.0599 C.2     1  UNL1        0.2459
     34 O          66.7931   93.7764   12.2542 O.2     1  UNL1       -0.2701
     35 H          66.1219   93.1415    8.8933 H       1  UNL1        0.1498
     36 C          67.7207   94.4776    9.4888 C.3     1  UNL1        0.0956
     37 C          67.4609   95.9144    9.1445 C.3     1  UNL1        0.0629
     38 O          65.0404   96.3680    9.9722 O.co2   1  UNL1       -0.5491
     39 C          66.0609   96.3792    8.8729 C.2     1  UNL1        0.0520
     40 O          65.6814   96.8554    7.5021 O.co2   1  UNL1       -0.5491
@<TRIPOS>UNITY_ATOM_ATTR
38 1
charge -1
@<TRIPOS>BOND
     1    38    39   ar
     2    39    40   ar
     3    39    37    1
     4    37    36    1
     5    36    32    1
     6    32    33   am
     7    33    34    2
     8    33    26    1
     9    26    27   ar
    10    27    28   ar
    11    28    29   ar
    12    29    25    1
    13    25     1    1
    14     1     2   ar
    15     2     3   ar
    16     3     6    1
    17     6     7   ar
    18     7     8   ar
    19     8     9    1
    20     8    10   ar
    21    10    11   ar
    22    11    12    1
    23    11    13   ar
    24     3     4   ar
    25     4     5   ar
    26     5    14    1
    27    14    15   ar
    28    15    16   ar
    29    16    17   ar
    30    17    20    1
    31    20    21    1
    32    21    22    1
    33    21    23    1
    34    21    24    1
    35    17    18   ar
    36    18    19   ar
    37    29    30   ar
    38    30    31   ar
    39    31    26   ar
    40     5     1   ar
    41    19    14   ar
    42    13     6   ar
    43    32    35    1
@<TRIPOS>MOLECULE
*****
 40 43 0 0 0
SMALL
GASTEIGER

@<TRIPOS>ATOM
      1 N          61.7886   87.9211   11.3630 N.ar    1  UNL1       -0.2464
      2 N          62.4061   86.8648   12.2308 N.ar    1  UNL1       -0.1690
      3 C          62.2518   85.5448   11.5351 C.ar    1  UNL1        0.1024
      4 C          61.5390   85.7853   10.2373 C.ar    1  UNL1        0.0396
      5 C          61.2527   87.2538   10.1310 C.ar    1  UNL1        0.0798
      6 C          62.7270   84.2174   12.0473 C.ar    1  UNL1        0.0211
      7 C          62.6517   83.0040   11.1688 C.ar    1  UNL1        0.0130
      8 C          63.1268   81.6766   11.6809 C.ar    1  UNL1        0.0586
      9 CL         63.0516   80.4631   10.8024 Cl      1  UNL1       -0.0822
     10 C          63.6772   81.5627   13.0716 C.ar    1  UNL1        0.0228
     11 C          63.7525   82.7761   13.9501 C.ar    1  UNL1        0.0586
     12 CL         64.3029   82.6623   15.3408 Cl      1  UNL1       -0.0822
     13 C          63.2774   84.1035   13.4380 C.ar    1  UNL1        0.0130
     14 C          60.5534   87.9356    8.9925 C.ar    1  UNL1        0.0176
     15 C          59.8270   87.1217    7.9630 C.ar    1  UNL1        0.0046
     16 C          59.1277   87.8035    6.8246 C.ar    1  UNL1        0.0372
     17 C          59.1547   89.2993    6.7156 C.ar    1  UNL1        0.1468
     18 C          59.8810   90.1133    7.7451 C.ar    1  UNL1        0.0372
     19 C          60.5804   89.4314    8.8835 C.ar    1  UNL1        0.0046
     20 O          58.4553   89.9811    5.5772 O.3     1  UNL1       -0.4045
     21 C          58.8811   91.3545    5.1501 C.3     1  UNL1        0.5753
     22 F          59.3068   92.7280    4.7230 F       1  UNL1       -0.1328
     23 F          60.2940   90.8719    5.0065 F       1  UNL1       -0.1328
     24 F          57.4681   91.8372    5.2937 F       1  UNL1       -0.1328
     25 C          61.7192   89.3870   11.6727 C.3     1  UNL1        0.1538
     26 C          65.4626   91.6377   12.7551 C.ar    1  UNL1        0.0533
     27 C          64.8911   90.6303   13.7082 C.ar    1  UNL1        0.0042
     28 C          63.6433   89.8801   13.3475 C.ar    1  UNL1       -0.0022
     29 C          62.9669   90.1372   12.0335 C.ar    1  UNL1        0.0021
     30 C          63.5384   91.1447   11.0803 C.ar    1  UNL1       -0.0022
     31 C          64.7863   91.8949   11.4412 C.ar    1  UNL1        0.0042
     32 N          67.9230   91.6428   13.5895 N.am    1  UNL1       -0.3005
     33 C          66.7104   92.3879   13.1159 C.2     1  UNL1        0.2459
     34 O          66.7456   93.8832   13.0031 O.2     1  UNL1       -0.2701
     35 H          67.9000   90.6613   13.6635 H       1  UNL1        0.1498
     36 C          69.1708   92.3930   13.9503 C.3     1  UNL1        0.0956
     37 C          69.4322   92.7711   15.3781 C.3     1  UNL1        0.0629
     38 O          68.8120   95.0146   16.5324 O.co2   1  UNL1       -0.5491
     39 C          68.4440   93.6194   16.1223 C.2     1  UNL1        0.0520
     40 O          67.0879   93.0726   16.4564 O.co2   1  UNL1       -0.5491
@<TRIPOS>UNITY_ATOM_ATTR
38 1
charge -1
@<TRIPOS>BOND
     1    38    39   ar
     2    39    40   ar
     3    39    37    1
     4    37    36    1
     5    36    32    1
     6    32    33   am
     7    33    34    2
     8    33    26    1
     9    26    27   ar
    10    27    28   ar
    11    28    29   ar
    12    29    25    1
    13    25     1    1
    14     1     2   ar
    15     2     3   ar
    16     3     6    1
    17     6     7   ar
    18     7     8   ar
    19     8     9    1
    20     8    10   ar
    21    10    11   ar
    22    11    12    1
    23    11    13   ar
    24     3     4   ar
    25     4     5   ar
    26     5    14    1
    27    14    15   ar
    28    15    16   ar
    29    16    17   ar
    30    17    20    1
    31    20    21    1
    32    21    22    1
    33    21    23    1
    34    21    24    1
    35    17    18   ar
    36    18    19   ar
    37    29    30   ar
    38    30    31   ar
    39    31    26   ar
    40     5     1   ar
    41    19    14   ar
    42    13     6   ar
    43    32    35    1
@<TRIPOS>MOLECULE
*****
 40 43 0 0 0
SMALL
GASTEIGER

@<TRIPOS>ATOM
      1 N          62.3393   87.6882   11.8465 N.ar    1  UNL1       -0.2464
      2 N          62.7436   89.1327   11.8419 N.ar    1  UNL1       -0.1690
      3 C          63.8577   89.3055   12.8314 C.ar    1  UNL1        0.1024
      4 C          64.1420   87.9677   13.4475 C.ar    1  UNL1        0.0396
      5 C          63.2036   86.9682   12.8389 C.ar    1  UNL1        0.0798
      6 C          64.5635   90.5903   13.1489 C.ar    1  UNL1        0.0211
      7 C          64.7868   91.6095   12.0714 C.ar    1  UNL1        0.0130
      8 C          65.4927   92.8944   12.3889 C.ar    1  UNL1        0.0586
      9 CL         65.7160   93.9136   11.3113 Cl      1  UNL1       -0.0822
     10 C          65.9752   93.1601   13.7841 C.ar    1  UNL1        0.0228
     11 C          65.7519   92.1409   14.8617 C.ar    1  UNL1        0.0586
     12 CL         66.2344   92.4065   16.2569 Cl      1  UNL1       -0.0822
     13 C          65.0460   90.8560   14.5441 C.ar    1  UNL1        0.0130
     14 C          63.1405   85.5055   13.1652 C.ar    1  UNL1        0.0176
     15 C          62.8131   84.5108   12.0912 C.ar    1  UNL1        0.0046
     16 C          62.7500   83.0482   12.4176 C.ar    1  UNL1        0.0372
     17 C          63.0144   82.5800   13.8180 C.ar    1  UNL1        0.1468
     18 C          63.3418   83.5747   14.8920 C.ar    1  UNL1        0.0372
     19 C          63.4049   85.0374   14.5656 C.ar    1  UNL1        0.0046
     20 O          62.9513   81.1174   14.1443 O.3     1  UNL1       -0.4045
     21 C          61.6669   80.3636   13.9646 C.3     1  UNL1        0.5753
     22 F          60.3825   79.6099   13.7848 F       1  UNL1       -0.1328
     23 F          62.4190   79.2347   13.3243 F       1  UNL1       -0.1328
     24 F          60.9148   81.4925   14.6049 F       1  UNL1       -0.1328
     25 C          61.2604   87.0719   11.0063 C.3     1  UNL1        0.1538
     26 C          59.5991   89.3157    7.4771 C.ar    1  UNL1        0.0533
     27 C          60.1045   90.0668    8.6731 C.ar    1  UNL1        0.0042
     28 C          60.6582   89.3189    9.8495 C.ar    1  UNL1       -0.0022
     29 C          60.7066   87.8198    9.8299 C.ar    1  UNL1        0.0021
     30 C          60.2013   87.0686    8.6339 C.ar    1  UNL1       -0.0022
     31 C          59.6475   87.8166    7.4575 C.ar    1  UNL1        0.0042
     32 N          59.9595   90.8707    5.4272 N.am    1  UNL1       -0.3005
     33 C          59.0454   90.0637    6.3007 C.2     1  UNL1        0.2459
     34 O          57.5774   90.0046    5.9978 O.2     1  UNL1       -0.2701
     35 H          60.9229   90.9095    5.6260 H       1  UNL1        0.1498
     36 C          59.4057   91.6186    4.2508 C.3     1  UNL1        0.0956
     37 C          60.2300   92.6767    3.5791 C.3     1  UNL1        0.0629
     38 O          61.7454   92.6660    1.4688 O.co2   1  UNL1       -0.5491
     39 C          61.5202   92.3090    2.9082 C.2     1  UNL1        0.0520
     40 O          62.5851   91.5842    3.6766 O.co2   1  UNL1       -0.5491
@<TRIPOS>UNITY_ATOM_ATTR
38 1
charge -1
@<TRIPOS>BOND
     1    38    39   ar
     2    39    40   ar
     3    39    37    1
     4    37    36    1
     5    36    32    1
     6    32    33   am
     7    33    34    2
     8    33    26    1
     9    26    27   ar
    10    27    28   ar
    11    28    29   ar
    12    29    25    1
    13    25     1    1
    14     1     2   ar
    15     2     3   ar
    16     3     6    1
    17     6     7   ar
    18     7     8   ar
    19     8     9    1
    20     8    10   ar
    21    10    11   ar
    22    11    12    1
    23    11    13   ar
    24     3     4   ar
    25     4     5   ar
    26     5    14    1
    27    14    15   ar
    28    15    16   ar
    29    16    17   ar
    30    17    20    1
    31    20    21    1
    32    21    22    1
    33    21    23    1
    34    21    24    1
    35    17    18   ar
    36    18    19   ar
    37    29    30   ar
    38    30    31   ar
    39    31    26   ar
    40     5     1   ar
    41    19    14   ar
    42    13     6   ar
    43    32    35    1
@<TRIPOS>MOLECULE
*****
 40 43 0 0 0
SMALL
GASTEIGER

@<TRIPOS>ATOM
      1 N          63.3106   90.4692   11.4187 N.ar    1  UNL1       -0.2464
      2 N          63.9251   91.3693   10.3880 N.ar    1  UNL1       -0.1690
      3 C          65.0727   92.0923   11.0289 C.ar    1  UNL1        0.1024
      4 C          65.1673   91.6389   12.4557 C.ar    1  UNL1        0.0396
      5 C          64.0783   90.6359   12.6966 C.ar    1  UNL1        0.0798
      6 C          65.9682   93.0928   10.3605 C.ar    1  UNL1        0.0211
      7 C          65.4621   94.4738   10.0665 C.ar    1  UNL1        0.0130
      8 C          66.3576   95.4743    9.3980 C.ar    1  UNL1        0.0586
      9 CL         65.8514   96.8554    9.1039 Cl      1  UNL1       -0.0822
     10 C          67.7594   95.0939    9.0236 C.ar    1  UNL1        0.0228
     11 C          68.2656   93.7128    9.3176 C.ar    1  UNL1        0.0586
     12 CL         69.6674   93.3323    8.9432 Cl      1  UNL1       -0.0822
     13 C          67.3700   92.7123    9.9861 C.ar    1  UNL1        0.0130
     14 C          63.8050   89.9244   13.9884 C.ar    1  UNL1        0.0176
     15 C          63.0932   90.6359   15.1006 C.ar    1  UNL1        0.0046
     16 C          62.8198   89.9243   16.3925 C.ar    1  UNL1        0.0372
     17 C          63.2583   88.5011   16.5722 C.ar    1  UNL1        0.1468
     18 C          63.9701   87.7895   15.4600 C.ar    1  UNL1        0.0372
     19 C          64.2435   88.5012   14.1682 C.ar    1  UNL1        0.0046
     20 O          62.9850   87.7896   17.8641 O.3     1  UNL1       -0.4045
     21 C          62.5789   86.3456   17.8536 C.3     1  UNL1        0.5753
     22 F          62.1728   84.9017   17.8431 F       1  UNL1       -0.1328
     23 F          63.8570   85.9811   18.5489 F       1  UNL1       -0.1328
     24 F          61.3007   86.7101   17.1582 F       1  UNL1       -0.1328
     25 C          62.1349   89.5619   11.2084 C.3     1  UNL1        0.1538
     26 C          62.7573   85.1198   10.8473 C.ar    1  UNL1        0.0533
     27 C          62.5507   85.9507    9.6157 C.ar    1  UNL1        0.0042
     28 C          62.3432   87.4314    9.7360 C.ar    1  UNL1       -0.0022
     29 C          62.3424   88.0812   11.0880 C.ar    1  UNL1        0.0021
     30 C          62.5490   87.2502   12.3196 C.ar    1  UNL1       -0.0022
     31 C          62.7565   85.7695   12.1992 C.ar    1  UNL1        0.0042
     32 N          62.5859   82.7339   11.8614 N.am    1  UNL1       -0.3005
     33 C          62.9648   83.6390   10.7269 C.2     1  UNL1        0.2459
     34 O          63.5512   83.0635    9.4719 O.2     1  UNL1       -0.2701
     35 H          62.2010   83.1117   12.6850 H       1  UNL1        0.1498
     36 C          62.7934   81.2533   11.7409 C.3     1  UNL1        0.0956
     37 C          62.4274   80.3494   12.8808 C.3     1  UNL1        0.0629
     38 O          62.3421   81.8287   15.0148 O.co2   1  UNL1       -0.5491
     39 C          61.6688   80.8929   14.0551 C.2     1  UNL1        0.0520
     40 O          60.2371   80.5006   14.2698 O.co2   1  UNL1       -0.5491
@<TRIPOS>UNITY_ATOM_ATTR
38 1
charge -1
@<TRIPOS>BOND
     1    38    39   ar
     2    39    40   ar
     3    39    37    1
     4    37    36    1
     5    36    32    1
     6    32    33   am
     7    33    34    2
     8    33    26    1
     9    26    27   ar
    10    27    28   ar
    11    28    29   ar
    12    29    25    1
    13    25     1    1
    14     1     2   ar
    15     2     3   ar
    16     3     6    1
    17     6     7   ar
    18     7     8   ar
    19     8     9    1
    20     8    10   ar
    21    10    11   ar
    22    11    12    1
    23    11    13   ar
    24     3     4   ar
    25     4     5   ar
    26     5    14    1
    27    14    15   ar
    28    15    16   ar
    29    16    17   ar
    30    17    20    1
    31    20    21    1
    32    21    22    1
    33    21    23    1
    34    21    24    1
    35    17    18   ar
    36    18    19   ar
    37    29    30   ar
    38    30    31   ar
    39    31    26   ar
    40     5     1   ar
    41    19    14   ar
    42    13     6   ar
    43    32    35    1
@<TRIPOS>MOLECULE
*****
 40 43 0 0 0
SMALL
GASTEIGER

@<TRIPOS>ATOM
      1 N          62.7424   89.2655   13.4561 N.ar    1  UNL1       -0.2464
      2 N          63.2434   90.6769   13.3716 N.ar    1  UNL1       -0.1690
      3 C          64.6724   90.6896   13.8277 C.ar    1  UNL1        0.1024
      4 C          65.0546   89.2860   14.1939 C.ar    1  UNL1        0.0396
      5 C          63.8619   88.4059   13.9642 C.ar    1  UNL1        0.0798
      6 C          65.5629   91.8943   13.9040 C.ar    1  UNL1        0.0211
      7 C          66.5115   92.0540   15.0548 C.ar    1  UNL1        0.0130
      8 C          67.4019   93.2586   15.1312 C.ar    1  UNL1        0.0586
      9 CL         68.3506   93.4183   16.2820 Cl      1  UNL1       -0.0822
     10 C          67.3437   94.3036   14.0567 C.ar    1  UNL1        0.0228
     11 C          66.3950   94.1439   12.9058 C.ar    1  UNL1        0.0586
     12 CL         66.3368   95.1889   11.8313 Cl      1  UNL1       -0.0822
     13 C          65.5046   92.9392   12.8295 C.ar    1  UNL1        0.0130
     14 C          63.7993   86.9261   14.2011 C.ar    1  UNL1        0.0176
     15 C          63.5070   85.9957   13.0614 C.ar    1  UNL1        0.0046
     16 C          63.4445   84.5159   13.2984 C.ar    1  UNL1        0.0372
     17 C          63.6744   83.9664   14.6751 C.ar    1  UNL1        0.1468
     18 C          63.9667   84.8967   15.8148 C.ar    1  UNL1        0.0372
     19 C          64.0292   86.3765   15.5778 C.ar    1  UNL1        0.0046
     20 O          63.6119   82.4865   14.9120 O.3     1  UNL1       -0.4045
     21 C          62.8824   81.6023   13.9445 C.3     1  UNL1        0.5753
     22 F          62.1529   80.7181   12.9770 F       1  UNL1       -0.1328
     23 F          61.5782   81.9823   14.5806 F       1  UNL1       -0.1328
     24 F          64.1866   81.2224   13.3084 F       1  UNL1       -0.1328
     25 C          61.3642   88.7961   13.0956 C.3     1  UNL1        0.1538
     26 C          59.9828   88.9491    8.8156 C.ar    1  UNL1        0.0533
     27 C          59.8152   90.1482    9.7011 C.ar    1  UNL1        0.0042
     28 C          60.2757   90.0972   11.1277 C.ar    1  UNL1       -0.0022
     29 C          60.9037   88.8471   11.6690 C.ar    1  UNL1        0.0021
     30 C          61.0713   87.6480   10.7835 C.ar    1  UNL1       -0.0022
     31 C          60.6108   87.6990    9.3567 C.ar    1  UNL1        0.0042
     32 N          59.2276   90.3213    6.7427 N.am    1  UNL1       -0.3005
     33 C          59.5224   89.0001    7.3889 C.2     1  UNL1        0.2459
     34 O          59.3567   87.7299    6.6084 O.2     1  UNL1       -0.2701
     35 H          59.3363   91.1550    7.2550 H       1  UNL1        0.1498
     36 C          58.7671   90.3723    5.3161 C.3     1  UNL1        0.0956
     37 C          58.6976   91.6869    4.5969 C.3     1  UNL1        0.0629
     38 O          59.8811   93.5772    3.2644 O.co2   1  UNL1       -0.5491
     39 C          59.9570   92.3514    4.1255 C.2     1  UNL1        0.0520
     40 O          61.2923   91.7901    4.5153 O.co2   1  UNL1       -0.5491
@<TRIPOS>UNITY_ATOM_ATTR
38 1
charge -1
@<TRIPOS>BOND
     1    38    39   ar
     2    39    40   ar
     3    39    37    1
     4    37    36    1
     5    36    32    1
     6    32    33   am
     7    33    34    2
     8    33    26    1
     9    26    27   ar
    10    27    28   ar
    11    28    29   ar
    12    29    25    1
    13    25     1    1
    14     1     2   ar
    15     2     3   ar
    16     3     6    1
    17     6     7   ar
    18     7     8   ar
    19     8     9    1
    20     8    10   ar
    21    10    11   ar
    22    11    12    1
    23    11    13   ar
    24     3     4   ar
    25     4     5   ar
    26     5    14    1
    27    14    15   ar
    28    15    16   ar
    29    16    17   ar
    30    17    20    1
    31    20    21    1
    32    21    22    1
    33    21    23    1
    34    21    24    1
    35    17    18   ar
    36    18    19   ar
    37    29    30   ar
    38    30    31   ar
    39    31    26   ar
    40     5     1   ar
    41    19    14   ar
    42    13     6   ar
    43    32    35    1
