@<TRIPOS>MOLECULE
*****
 33 36 0 0 0
SMALL
GASTEIGER

@<TRIPOS>ATOM
      1 N          63.0824   90.8937   11.1272 N.3     1  UNL1       -0.2711
      2 C          64.2452   91.7495   10.7206 C.3     1  UNL1        0.0743
      3 C          65.2719   92.1520   11.7373 C.3     1  UNL1        0.0444
      4 C          65.1358   91.6988   13.1607 C.3     1  UNL1        0.1305
      5 C          63.9730   90.8430   13.5674 C.3     1  UNL1        0.0444
      6 C          62.9463   90.4405   12.5506 C.3     1  UNL1        0.0743
      7 C          65.1326   91.3240   14.6131 C.2     1  UNL1        0.2397
      8 O          64.1020   90.4808   15.3038 O.2     1  UNL1       -0.2734
      9 N          66.3409   91.9404   15.2537 N.am    1  UNL1       -0.2862
     10 C          67.0908   92.6962   14.1970 C.3     1  UNL1        0.1875
     11 N          66.3461   92.5469   12.9036 N.pl3   1  UNL1       -0.2859
     12 H          66.5967   91.8626   16.2012 H       1  UNL1        0.1510
     13 C          66.7421   93.1412   11.5845 C.ar    1  UNL1        0.0515
     14 C          66.2709   94.5149   11.2091 C.ar    1  UNL1        0.0147
     15 C          66.6668   95.1092    9.8900 C.ar    1  UNL1        0.0036
     16 C          67.5341   94.3298    8.9463 C.ar    1  UNL1        0.0297
     17 C          68.0053   92.9561    9.3217 C.ar    1  UNL1        0.1414
     18 F          68.8725   92.1767    8.3780 F       1  UNL1       -0.2041
     19 C          67.6093   92.3619   10.6408 C.ar    1  UNL1        0.0442
     20 C          62.0556   90.4911   10.1105 C.3     1  UNL1        0.0936
     21 C          61.4201   89.1344   10.1830 C.3     1  UNL1        0.1070
     22 O          60.5707   86.3528    9.4471 O.2     1  UNL1       -0.2701
     23 C          61.7943   86.5655   10.2883 C.2     1  UNL1        0.2460
     24 N          62.2190   87.9563   10.6562 N.am    1  UNL1       -0.2994
     25 H          63.0221   88.0959   11.2083 H       1  UNL1        0.1498
     26 C          62.5931   85.3875   10.7615 C.ar    1  UNL1        0.0557
     27 C          63.2157   84.4546    9.7654 C.ar    1  UNL1        0.0070
     28 C          64.0146   83.2765   10.2387 C.ar    1  UNL1        0.0321
     29 C          64.1909   83.0314   11.7080 C.ar    1  UNL1        0.1674
     30 F          64.9898   81.8533   12.1812 F       1  UNL1       -0.2018
     31 C          63.5684   83.9642   12.7040 C.ar    1  UNL1        0.1675
     32 F          63.7447   83.7191   14.1733 F       1  UNL1       -0.2018
     33 C          62.7695   85.1424   12.2308 C.ar    1  UNL1        0.0365
@<TRIPOS>BOND
     1    22    23    2
     2    23    24   am
     3    24    21    1
     4    21    20    1
     5    20     1    1
     6     1     2    1
     7     2     3    1
     8     3     4    1
     9     4     5    1
    10     5     6    1
    11     4     7    1
    12     7     8    2
    13     7     9   am
    14     9    10    1
    15    10    11    1
    16    11    13    1
    17    13    14   ar
    18    14    15   ar
    19    15    16   ar
    20    16    17   ar
    21    17    18    1
    22    17    19   ar
    23    23    26    1
    24    26    27   ar
    25    27    28   ar
    26    28    29   ar
    27    29    30    1
    28    29    31   ar
    29    31    32    1
    30    31    33   ar
    31     6     1    1
    32    19    13   ar
    33    33    26   ar
    34    11     4    1
    35    24    25    1
    36     9    12    1
@<TRIPOS>MOLECULE
*****
 33 36 0 0 0
SMALL
GASTEIGER

@<TRIPOS>ATOM
      1 N          62.3965   90.6014   10.9226 N.3     1  UNL1       -0.2711
      2 C          62.7208   90.1673   12.3212 C.3     1  UNL1        0.0743
      3 C          63.9578   90.6794   12.9976 C.3     1  UNL1        0.0444
      4 C          64.8705   91.6256   12.2754 C.3     1  UNL1        0.1305
      5 C          64.5462   92.0597   10.8767 C.3     1  UNL1        0.0444
      6 C          63.3092   91.5476   10.2003 C.3     1  UNL1        0.0743
      7 C          65.8724   92.5713   11.6823 C.2     1  UNL1        0.2397
      8 O          65.8133   93.1710   10.3086 O.2     1  UNL1       -0.2734
      9 N          66.9440   92.8121   12.7040 N.am    1  UNL1       -0.2862
     10 C          66.6042   92.0151   13.9286 C.3     1  UNL1        0.1875
     11 N          65.3228   91.2819   13.6637 N.pl3   1  UNL1       -0.2859
     12 H          67.7319   93.3914   12.5908 H       1  UNL1        0.1510
     13 C          64.6174   90.3657   14.6192 C.ar    1  UNL1        0.0515
     14 C          63.8525   90.9346   15.7773 C.ar    1  UNL1        0.0147
     15 C          63.1471   90.0183   16.7328 C.ar    1  UNL1        0.0036
     16 C          63.2066   88.5332   16.5303 C.ar    1  UNL1        0.0297
     17 C          63.9716   87.9644   15.3722 C.ar    1  UNL1        0.1414
     18 F          64.0312   86.4793   15.1695 F       1  UNL1       -0.2041
     19 C          64.6770   88.8806   14.4167 C.ar    1  UNL1        0.0442
     20 C          61.1594   90.0893   10.2461 C.3     1  UNL1        0.0936
     21 C          61.1450   88.7121    9.6520 C.3     1  UNL1        0.1070
     22 O          61.4589   86.0551    8.2949 O.2     1  UNL1       -0.2701
     23 C          61.9765   86.2510    9.6890 C.2     1  UNL1        0.2460
     24 N          61.8196   87.5795   10.3676 N.am    1  UNL1       -0.2994
     25 H          62.1594   87.7080   11.2826 H       1  UNL1        0.1498
     26 C          62.6511   85.1184   10.4046 C.ar    1  UNL1        0.0557
     27 C          63.4804   84.1330    9.6355 C.ar    1  UNL1        0.0070
     28 C          64.1550   83.0005   10.3511 C.ar    1  UNL1        0.0321
     29 C          64.0004   82.8532   11.8359 C.ar    1  UNL1        0.1674
     30 F          64.6750   81.7206   12.5515 F       1  UNL1       -0.2018
     31 C          63.1712   83.8384   12.6050 C.ar    1  UNL1        0.1675
     32 F          63.0165   83.6911   14.0897 F       1  UNL1       -0.2018
     33 C          62.4965   84.9711   11.8894 C.ar    1  UNL1        0.0365
@<TRIPOS>BOND
     1    22    23    2
     2    23    24   am
     3    24    21    1
     4    21    20    1
     5    20     1    1
     6     1     2    1
     7     2     3    1
     8     3     4    1
     9     4     5    1
    10     5     6    1
    11     4     7    1
    12     7     8    2
    13     7     9   am
    14     9    10    1
    15    10    11    1
    16    11    13    1
    17    13    14   ar
    18    14    15   ar
    19    15    16   ar
    20    16    17   ar
    21    17    18    1
    22    17    19   ar
    23    23    26    1
    24    26    27   ar
    25    27    28   ar
    26    28    29   ar
    27    29    30    1
    28    29    31   ar
    29    31    32    1
    30    31    33   ar
    31     6     1    1
    32    19    13   ar
    33    33    26   ar
    34    11     4    1
    35    24    25    1
    36     9    12    1
@<TRIPOS>MOLECULE
*****
 33 36 0 0 0
SMALL
GASTEIGER

@<TRIPOS>ATOM
      1 N          63.0951   90.8813   11.1130 N.3     1  UNL1       -0.2711
      2 C          64.2484   91.7469   10.7002 C.3     1  UNL1        0.0743
      3 C          65.2661   92.1749   11.7156 C.3     1  UNL1        0.0444
      4 C          65.1303   91.7374   13.1439 C.3     1  UNL1        0.1305
      5 C          63.9769   90.8718   13.5568 C.3     1  UNL1        0.0444
      6 C          62.9593   90.4438   12.5414 C.3     1  UNL1        0.0743
      7 C          65.1263   91.3803   14.6008 C.2     1  UNL1        0.2397
      8 O          64.1040   90.5326   15.2981 O.2     1  UNL1       -0.2734
      9 N          66.3242   92.0200   15.2382 N.am    1  UNL1       -0.2862
     10 C          67.0685   92.7723   14.1751 C.3     1  UNL1        0.1875
     11 N          66.3307   92.5977   12.8808 N.pl3   1  UNL1       -0.2859
     12 H          66.5775   91.9570   16.1875 H       1  UNL1        0.1510
     13 C          66.7240   93.1809   11.5560 C.ar    1  UNL1        0.0515
     14 C          66.2354   94.5430   11.1614 C.ar    1  UNL1        0.0147
     15 C          66.6288   95.1261    9.8365 C.ar    1  UNL1        0.0036
     16 C          67.5108   94.3471    8.9063 C.ar    1  UNL1        0.0297
     17 C          67.9994   92.9850    9.3010 C.ar    1  UNL1        0.1414
     18 F          68.8814   92.2059    8.3708 F       1  UNL1       -0.2041
     19 C          67.6060   92.4019   10.6258 C.ar    1  UNL1        0.0442
     20 C          62.0774   90.4532   10.0976 C.3     1  UNL1        0.0936
     21 C          61.4081   89.1168   10.2238 C.3     1  UNL1        0.1070
     22 O          60.5607   86.3221    9.5369 O.2     1  UNL1       -0.2701
     23 C          61.7447   86.5488   10.4296 C.2     1  UNL1        0.2460
     24 N          62.1684   87.9461   10.7730 N.am    1  UNL1       -0.2994
     25 H          62.9455   88.0949   11.3588 H       1  UNL1        0.1498
     26 C          62.5050   85.3782   10.9787 C.ar    1  UNL1        0.0557
     27 C          62.5499   85.1409   12.4592 C.ar    1  UNL1        0.0070
     28 C          63.3102   83.9703   13.0084 C.ar    1  UNL1        0.0321
     29 C          64.0256   83.0370   12.0772 C.ar    1  UNL1        0.1674
     30 F          64.7859   81.8665   12.6264 F       1  UNL1       -0.2018
     31 C          63.9808   83.2743   10.5968 C.ar    1  UNL1        0.1675
     32 F          64.6962   82.3411    9.6656 F       1  UNL1       -0.2018
     33 C          63.2205   84.4450   10.0475 C.ar    1  UNL1        0.0365
@<TRIPOS>BOND
     1    22    23    2
     2    23    24   am
     3    24    21    1
     4    21    20    1
     5    20     1    1
     6     1     2    1
     7     2     3    1
     8     3     4    1
     9     4     5    1
    10     5     6    1
    11     4     7    1
    12     7     8    2
    13     7     9   am
    14     9    10    1
    15    10    11    1
    16    11    13    1
    17    13    14   ar
    18    14    15   ar
    19    15    16   ar
    20    16    17   ar
    21    17    18    1
    22    17    19   ar
    23    23    26    1
    24    26    27   ar
    25    27    28   ar
    26    28    29   ar
    27    29    30    1
    28    29    31   ar
    29    31    32    1
    30    31    33   ar
    31     6     1    1
    32    19    13   ar
    33    33    26   ar
    34    11     4    1
    35    24    25    1
    36     9    12    1
@<TRIPOS>MOLECULE
*****
 33 36 0 0 0
SMALL
GASTEIGER

@<TRIPOS>ATOM
      1 N          63.9981   87.9052   13.8247 N.3     1  UNL1       -0.2711
      2 C          63.3640   87.4598   12.5404 C.3     1  UNL1        0.0743
      3 C          63.0705   86.0065   12.3135 C.3     1  UNL1        0.0444
      4 C          63.4111   84.9985   13.3709 C.3     1  UNL1        0.1305
      5 C          64.0452   85.4439   14.6552 C.3     1  UNL1        0.0444
      6 C          64.3387   86.8973   14.8821 C.3     1  UNL1        0.0743
      7 C          63.6938   83.8815   14.3312 C.2     1  UNL1        0.2397
      8 O          64.3197   84.0217   15.6872 O.2     1  UNL1       -0.2734
      9 N          63.2407   82.5995   13.6976 N.am    1  UNL1       -0.2862
     10 C          62.6780   82.9243   12.3456 C.3     1  UNL1        0.1875
     11 N          62.7832   84.4069   12.1436 N.pl3   1  UNL1       -0.2859
     12 H          63.3019   81.7025   14.0986 H       1  UNL1        0.1510
     13 C          62.3388   85.1649   10.9280 C.ar    1  UNL1        0.0515
     14 C          63.0646   84.9887    9.6272 C.ar    1  UNL1        0.0147
     15 C          62.6201   85.7468    8.4116 C.ar    1  UNL1        0.0036
     16 C          61.4497   86.6812    8.4968 C.ar    1  UNL1        0.0297
     17 C          60.7239   86.8574    9.7976 C.ar    1  UNL1        0.1414
     18 F          59.5535   87.7918    9.8828 F       1  UNL1       -0.2041
     19 C          61.1684   86.0993   11.0131 C.ar    1  UNL1        0.0442
     20 C          64.2917   89.3587   14.0517 C.3     1  UNL1        0.0936
     21 C          63.5732   90.4030   13.2499 C.3     1  UNL1        0.1070
     22 O          65.4512   92.5853   14.0931 O.2     1  UNL1       -0.2701
     23 C          65.2539   92.2869   12.6364 C.2     1  UNL1        0.2460
     24 N          64.3149   91.1958   12.2148 N.am    1  UNL1       -0.2994
     25 H          64.1855   91.0000   11.2587 H       1  UNL1        0.1498
     26 C          65.9956   93.0796   11.6013 C.ar    1  UNL1        0.0557
     27 C          65.9087   94.5771   11.5990 C.ar    1  UNL1        0.0070
     28 C          66.6504   95.3698   10.5639 C.ar    1  UNL1        0.0321
     29 C          67.4790   94.6651    9.5310 C.ar    1  UNL1        0.1674
     30 F          68.2207   95.4578    8.4959 F       1  UNL1       -0.2018
     31 C          67.5659   93.1676    9.5333 C.ar    1  UNL1        0.1675
     32 F          68.3945   92.4629    8.5005 F       1  UNL1       -0.2018
     33 C          66.8242   92.3748   10.5685 C.ar    1  UNL1        0.0365
@<TRIPOS>BOND
     1    22    23    2
     2    23    24   am
     3    24    21    1
     4    21    20    1
     5    20     1    1
     6     1     2    1
     7     2     3    1
     8     3     4    1
     9     4     5    1
    10     5     6    1
    11     4     7    1
    12     7     8    2
    13     7     9   am
    14     9    10    1
    15    10    11    1
    16    11    13    1
    17    13    14   ar
    18    14    15   ar
    19    15    16   ar
    20    16    17   ar
    21    17    18    1
    22    17    19   ar
    23    23    26    1
    24    26    27   ar
    25    27    28   ar
    26    28    29   ar
    27    29    30    1
    28    29    31   ar
    29    31    32    1
    30    31    33   ar
    31     6     1    1
    32    19    13   ar
    33    33    26   ar
    34    11     4    1
    35    24    25    1
    36     9    12    1
@<TRIPOS>MOLECULE
*****
 33 36 0 0 0
SMALL
GASTEIGER

@<TRIPOS>ATOM
      1 N          63.0699   88.9850   12.7507 N.3     1  UNL1       -0.2711
      2 C          63.1244   87.6226   12.1256 C.3     1  UNL1        0.0743
      3 C          62.2038   87.2803   10.9919 C.3     1  UNL1        0.0444
      4 C          61.2287   88.3004   10.4833 C.3     1  UNL1        0.1305
      5 C          61.1743   89.6628   11.1084 C.3     1  UNL1        0.0444
      6 C          62.0949   90.0051   12.2420 C.3     1  UNL1        0.0743
      7 C          60.2067   89.2120    9.8713 C.2     1  UNL1        0.2397
      8 O          59.9259   90.6260   10.2856 O.2     1  UNL1       -0.2734
      9 N          59.5148   88.4613    8.7723 N.am    1  UNL1       -0.2862
     10 C          60.1092   87.0857    8.7051 C.3     1  UNL1        0.1875
     11 N          61.1684   86.9862    9.7625 N.pl3   1  UNL1       -0.2859
     12 H          58.7967   88.8102    8.1962 H       1  UNL1        0.1510
     13 C          62.0182   85.7838   10.0489 C.ar    1  UNL1        0.0515
     14 C          63.0018   85.2995    9.0252 C.ar    1  UNL1        0.0147
     15 C          63.8516   84.0970    9.3117 C.ar    1  UNL1        0.0036
     16 C          63.7178   83.3789   10.6219 C.ar    1  UNL1        0.0297
     17 C          62.7342   83.8633   11.6455 C.ar    1  UNL1        0.1414
     18 F          62.6003   83.1452   12.9557 F       1  UNL1       -0.2041
     19 C          61.8844   85.0657   11.3590 C.ar    1  UNL1        0.0442
     20 C          63.9906   89.3274   13.8844 C.3     1  UNL1        0.0936
     21 C          64.5412   90.7170   14.0099 C.3     1  UNL1        0.1070
     22 O          66.0301   93.3028   14.3215 O.2     1  UNL1       -0.2701
     23 C          65.8265   92.7144   12.9569 C.2     1  UNL1        0.2460
     24 N          65.0820   91.4215   12.8011 N.am    1  UNL1       -0.2994
     25 H          64.9484   91.0353   11.9054 H       1  UNL1        0.1498
     26 C          66.3673   93.4188   11.7481 C.ar    1  UNL1        0.0557
     27 C          66.1678   94.8970   11.5896 C.ar    1  UNL1        0.0070
     28 C          66.7086   95.6015   10.3808 C.ar    1  UNL1        0.0321
     29 C          67.4488   94.8277    9.3304 C.ar    1  UNL1        0.1674
     30 F          67.9896   95.5321    8.1216 F       1  UNL1       -0.2018
     31 C          67.6483   93.3495    9.4888 C.ar    1  UNL1        0.1675
     32 F          68.3886   92.5758    8.4384 F       1  UNL1       -0.2018
     33 C          67.1075   92.6450   10.6977 C.ar    1  UNL1        0.0365
@<TRIPOS>BOND
     1    22    23    2
     2    23    24   am
     3    24    21    1
     4    21    20    1
     5    20     1    1
     6     1     2    1
     7     2     3    1
     8     3     4    1
     9     4     5    1
    10     5     6    1
    11     4     7    1
    12     7     8    2
    13     7     9   am
    14     9    10    1
    15    10    11    1
    16    11    13    1
    17    13    14   ar
    18    14    15   ar
    19    15    16   ar
    20    16    17   ar
    21    17    18    1
    22    17    19   ar
    23    23    26    1
    24    26    27   ar
    25    27    28   ar
    26    28    29   ar
    27    29    30    1
    28    29    31   ar
    29    31    32    1
    30    31    33   ar
    31     6     1    1
    32    19    13   ar
    33    33    26   ar
    34    11     4    1
    35    24    25    1
    36     9    12    1
@<TRIPOS>MOLECULE
*****
 33 36 0 0 0
SMALL
GASTEIGER

@<TRIPOS>ATOM
      1 N          63.2351   90.7135   11.4114 N.3     1  UNL1       -0.2711
      2 C          64.3318   91.6044   10.9078 C.3     1  UNL1        0.0743
      3 C          65.2514   92.2838   11.8787 C.3     1  UNL1        0.0444
      4 C          65.0744   92.0724   13.3531 C.3     1  UNL1        0.1305
      5 C          63.9777   91.1815   13.8567 C.3     1  UNL1        0.0444
      6 C          63.0580   90.5021   12.8858 C.3     1  UNL1        0.0743
      7 C          65.0200   91.9569   14.8477 C.2     1  UNL1        0.2397
      8 O          64.0364   91.1417   15.6338 O.2     1  UNL1       -0.2734
      9 N          66.1219   92.7998   15.4182 N.am    1  UNL1       -0.2862
     10 C          66.8573   93.4362   14.2761 C.3     1  UNL1        0.1875
     11 N          66.2099   92.9867   12.9999 N.pl3   1  UNL1       -0.2859
     12 H          66.3266   92.9151   16.3742 H       1  UNL1        0.1510
     13 C          66.6251   93.3819   11.6138 C.ar    1  UNL1        0.0515
     14 C          67.5566   92.5047   10.8310 C.ar    1  UNL1        0.0147
     15 C          67.9717   92.9000    9.4448 C.ar    1  UNL1        0.0036
     16 C          67.4554   94.1726    8.8414 C.ar    1  UNL1        0.0297
     17 C          66.5238   95.0498    9.6242 C.ar    1  UNL1        0.1414
     18 F          66.0074   96.3223    9.0208 F       1  UNL1       -0.2041
     19 C          66.1087   94.6544   11.0103 C.ar    1  UNL1        0.0442
     20 C          62.3154   90.0340   10.4405 C.3     1  UNL1        0.0936
     21 C          61.3487   88.9945   10.9251 C.3     1  UNL1        0.1070
     22 O          63.1677   87.4081   12.7069 O.2     1  UNL1       -0.2701
     23 C          62.5108   86.7507   11.5295 C.2     1  UNL1        0.2460
     24 N          61.6013   87.5438   10.6386 N.am    1  UNL1       -0.2994
     25 H          61.1702   87.1123    9.8658 H       1  UNL1        0.1498
     26 C          62.7633   85.3002   11.2430 C.ar    1  UNL1        0.0557
     27 C          63.2447   84.8762    9.8870 C.ar    1  UNL1        0.0070
     28 C          63.4973   83.4257    9.6005 C.ar    1  UNL1        0.0321
     29 C          63.2685   82.3991   10.6700 C.ar    1  UNL1        0.1674
     30 F          63.5210   80.9485   10.3835 F       1  UNL1       -0.2018
     31 C          62.7872   82.8229   12.0259 C.ar    1  UNL1        0.1675
     32 F          62.5584   81.7963   13.0953 F       1  UNL1       -0.2018
     33 C          62.5346   84.2736   12.3124 C.ar    1  UNL1        0.0365
@<TRIPOS>BOND
     1    22    23    2
     2    23    24   am
     3    24    21    1
     4    21    20    1
     5    20     1    1
     6     1     2    1
     7     2     3    1
     8     3     4    1
     9     4     5    1
    10     5     6    1
    11     4     7    1
    12     7     8    2
    13     7     9   am
    14     9    10    1
    15    10    11    1
    16    11    13    1
    17    13    14   ar
    18    14    15   ar
    19    15    16   ar
    20    16    17   ar
    21    17    18    1
    22    17    19   ar
    23    23    26    1
    24    26    27   ar
    25    27    28   ar
    26    28    29   ar
    27    29    30    1
    28    29    31   ar
    29    31    32    1
    30    31    33   ar
    31     6     1    1
    32    19    13   ar
    33    33    26   ar
    34    11     4    1
    35    24    25    1
    36     9    12    1
@<TRIPOS>MOLECULE
*****
 33 36 0 0 0
SMALL
GASTEIGER

@<TRIPOS>ATOM
      1 N          60.8888   87.1264   10.7117 N.3     1  UNL1       -0.2711
      2 C          61.4463   86.4995   11.9551 C.3     1  UNL1        0.0743
      3 C          62.4357   85.3771   11.8503 C.3     1  UNL1        0.0444
      4 C          62.8677   84.8815   10.5020 C.3     1  UNL1        0.1305
      5 C          62.3102   85.5083    9.2586 C.3     1  UNL1        0.0444
      6 C          61.3207   86.6308    9.3634 C.3     1  UNL1        0.0743
      7 C          63.3906   84.2830    9.2298 C.2     1  UNL1        0.2397
      8 O          63.0159   84.7020    7.8391 O.2     1  UNL1       -0.2734
      9 N          64.3541   83.1920    9.5925 N.am    1  UNL1       -0.2862
     10 C          64.4266   83.1162   11.0889 C.3     1  UNL1        0.1875
     11 N          63.5079   84.1603   11.6510 N.pl3   1  UNL1       -0.2859
     12 H          64.8515   82.6252    8.9596 H       1  UNL1        0.1510
     13 C          63.2711   84.4351   13.1064 C.ar    1  UNL1        0.0515
     14 C          62.3703   83.5378   13.9022 C.ar    1  UNL1        0.0147
     15 C          62.1335   83.8126   15.3577 C.ar    1  UNL1        0.0036
     16 C          62.7975   84.9849   16.0174 C.ar    1  UNL1        0.0297
     17 C          63.6983   85.8822   15.2215 C.ar    1  UNL1        0.1414
     18 F          64.3623   87.0544   15.8811 F       1  UNL1       -0.2041
     19 C          63.9351   85.6073   13.7661 C.ar    1  UNL1        0.0442
     20 C          59.8993   88.2489   10.8164 C.3     1  UNL1        0.0936
     21 C          60.3800   89.6577   11.0014 C.3     1  UNL1        0.1070
     22 O          62.9134   90.9412   10.0346 O.2     1  UNL1       -0.2701
     23 C          62.7553   90.5927   11.4850 C.2     1  UNL1        0.2460
     24 N          61.4886   89.9510   11.9684 N.am    1  UNL1       -0.2994
     25 H          61.3849   89.7223   12.9203 H       1  UNL1        0.1498
     26 C          63.8638   90.8860   12.4519 C.ar    1  UNL1        0.0557
     27 C          64.0351   90.0368   13.6766 C.ar    1  UNL1        0.0070
     28 C          65.1437   90.3301   14.6435 C.ar    1  UNL1        0.0321
     29 C          66.0809   91.4726   14.3860 C.ar    1  UNL1        0.1674
     30 F          67.1895   91.7658   15.3529 F       1  UNL1       -0.2018
     31 C          65.9097   92.3217   13.1614 C.ar    1  UNL1        0.1675
     32 F          66.8469   93.4642   12.9038 F       1  UNL1       -0.2018
     33 C          64.8011   92.0285   12.1944 C.ar    1  UNL1        0.0365
@<TRIPOS>BOND
     1    22    23    2
     2    23    24   am
     3    24    21    1
     4    21    20    1
     5    20     1    1
     6     1     2    1
     7     2     3    1
     8     3     4    1
     9     4     5    1
    10     5     6    1
    11     4     7    1
    12     7     8    2
    13     7     9   am
    14     9    10    1
    15    10    11    1
    16    11    13    1
    17    13    14   ar
    18    14    15   ar
    19    15    16   ar
    20    16    17   ar
    21    17    18    1
    22    17    19   ar
    23    23    26    1
    24    26    27   ar
    25    27    28   ar
    26    28    29   ar
    27    29    30    1
    28    29    31   ar
    29    31    32    1
    30    31    33   ar
    31     6     1    1
    32    19    13   ar
    33    33    26   ar
    34    11     4    1
    35    24    25    1
    36     9    12    1
@<TRIPOS>MOLECULE
*****
 33 36 0 0 0
SMALL
GASTEIGER

@<TRIPOS>ATOM
      1 N          63.4285   89.9735   15.1697 N.3     1  UNL1       -0.2711
      2 C          62.7130   89.7062   13.8788 C.3     1  UNL1        0.0743
      3 C          63.1392   90.4112   12.6253 C.3     1  UNL1        0.0444
      4 C          64.2809   91.3834   12.6627 C.3     1  UNL1        0.1305
      5 C          64.9964   91.6506   13.9536 C.3     1  UNL1        0.0444
      6 C          64.5702   90.9456   15.2071 C.3     1  UNL1        0.0743
      7 C          65.3988   92.3767   12.5463 C.2     1  UNL1        0.2397
      8 O          66.2869   92.8394   13.6631 O.2     1  UNL1       -0.2734
      9 N          65.4728   92.8260   11.1170 N.am    1  UNL1       -0.2862
     10 C          64.4005   92.1104   10.3501 C.3     1  UNL1        0.1875
     11 N          63.6639   91.2188   11.3053 N.pl3   1  UNL1       -0.2859
     12 H          66.1127   93.4764   10.7473 H       1  UNL1        0.1510
     13 C          62.5124   90.3204   10.9633 C.ar    1  UNL1        0.0515
     14 C          61.1048   90.8206   11.0988 C.ar    1  UNL1        0.0147
     15 C          59.9534   89.9222   10.7568 C.ar    1  UNL1        0.0036
     16 C          60.2095   88.5234   10.2793 C.ar    1  UNL1        0.0297
     17 C          61.6172   88.0232   10.1438 C.ar    1  UNL1        0.1414
     18 F          61.8734   86.6245    9.6663 F       1  UNL1       -0.2041
     19 C          62.7686   88.9217   10.4858 C.ar    1  UNL1        0.0442
     20 C          63.0024   89.2685   16.4233 C.3     1  UNL1        0.0936
     21 C          63.4805   87.8737   16.6989 C.3     1  UNL1        0.1070
     22 O          62.1959   85.1905   17.0869 O.2     1  UNL1       -0.2701
     23 C          62.8706   85.5183   15.7879 C.2     1  UNL1        0.2460
     24 N          63.5128   86.8598   15.5939 N.am    1  UNL1       -0.2994
     25 H          63.9556   87.0749   14.7413 H       1  UNL1        0.1498
     26 C          62.9029   84.5045   14.6829 C.ar    1  UNL1        0.0557
     27 C          63.4183   84.8885   13.3275 C.ar    1  UNL1        0.0070
     28 C          63.4506   83.8747   12.2225 C.ar    1  UNL1        0.0321
     29 C          62.9677   82.4768   12.4728 C.ar    1  UNL1        0.1674
     30 F          63.0000   81.4630   11.3678 F       1  UNL1       -0.2018
     31 C          62.4524   82.0927   13.8281 C.ar    1  UNL1        0.1675
     32 F          61.9694   80.6948   14.0784 F       1  UNL1       -0.2018
     33 C          62.4200   83.1066   14.9332 C.ar    1  UNL1        0.0365
@<TRIPOS>BOND
     1    22    23    2
     2    23    24   am
     3    24    21    1
     4    21    20    1
     5    20     1    1
     6     1     2    1
     7     2     3    1
     8     3     4    1
     9     4     5    1
    10     5     6    1
    11     4     7    1
    12     7     8    2
    13     7     9   am
    14     9    10    1
    15    10    11    1
    16    11    13    1
    17    13    14   ar
    18    14    15   ar
    19    15    16   ar
    20    16    17   ar
    21    17    18    1
    22    17    19   ar
    23    23    26    1
    24    26    27   ar
    25    27    28   ar
    26    28    29   ar
    27    29    30    1
    28    29    31   ar
    29    31    32    1
    30    31    33   ar
    31     6     1    1
    32    19    13   ar
    33    33    26   ar
    34    11     4    1
    35    24    25    1
    36     9    12    1
@<TRIPOS>MOLECULE
*****
 33 36 0 0 0
SMALL
GASTEIGER

@<TRIPOS>ATOM
      1 N          63.0914   90.2322   12.8134 N.3     1  UNL1       -0.2711
      2 C          64.1059   91.1059   12.1370 C.3     1  UNL1        0.0743
      3 C          65.0560   91.9261   12.9583 C.3     1  UNL1        0.0444
      4 C          64.9916   91.8727   14.4559 C.3     1  UNL1        0.1305
      5 C          63.9771   90.9990   15.1323 C.3     1  UNL1        0.0444
      6 C          63.0270   90.1788   14.3111 C.3     1  UNL1        0.0743
      7 C          65.0461   91.9217   15.9542 C.2     1  UNL1        0.2397
      8 O          64.1601   91.1592   16.8941 O.2     1  UNL1       -0.2734
      9 N          66.1423   92.8673   16.3474 N.am    1  UNL1       -0.2862
     10 C          66.7652   93.4025   15.0922 C.3     1  UNL1        0.1875
     11 N          66.0541   92.7879   13.9232 N.pl3   1  UNL1       -0.2859
     12 H          66.4065   93.0963   17.2677 H       1  UNL1        0.1510
     13 C          66.3528   93.0434   12.4757 C.ar    1  UNL1        0.0515
     14 C          65.7236   94.2108   11.7747 C.ar    1  UNL1        0.0147
     15 C          66.0225   94.4662   10.3272 C.ar    1  UNL1        0.0036
     16 C          66.9505   93.5544    9.5805 C.ar    1  UNL1        0.0297
     17 C          67.5796   92.3871   10.2815 C.ar    1  UNL1        0.1414
     18 F          68.5076   91.4752    9.5350 F       1  UNL1       -0.2041
     19 C          67.2808   92.1316   11.7291 C.ar    1  UNL1        0.0442
     20 C          62.1413   89.4120   11.9921 C.3     1  UNL1        0.0936
     21 C          62.6697   88.3679   11.0538 C.3     1  UNL1        0.1070
     22 O          63.9542   87.0515   13.4239 O.2     1  UNL1       -0.2701
     23 C          63.0627   86.2568   12.5163 C.2     1  UNL1        0.2460
     24 N          62.4205   86.9149   11.3312 N.am    1  UNL1       -0.2994
     25 H          61.8355   86.3933   10.7355 H       1  UNL1        0.1498
     26 C          62.8136   84.8039   12.7937 C.ar    1  UNL1        0.0557
     27 C          62.4942   84.3505   14.1874 C.ar    1  UNL1        0.0070
     28 C          62.2450   82.8976   14.4648 C.ar    1  UNL1        0.0321
     29 C          62.3152   81.8981   13.3486 C.ar    1  UNL1        0.1674
     30 F          62.0660   80.4452   13.6260 F       1  UNL1       -0.2018
     31 C          62.6346   82.3514   11.9549 C.ar    1  UNL1        0.1675
     32 F          62.7048   81.3519   10.8386 F       1  UNL1       -0.2018
     33 C          62.8838   83.8044   11.6774 C.ar    1  UNL1        0.0365
@<TRIPOS>BOND
     1    22    23    2
     2    23    24   am
     3    24    21    1
     4    21    20    1
     5    20     1    1
     6     1     2    1
     7     2     3    1
     8     3     4    1
     9     4     5    1
    10     5     6    1
    11     4     7    1
    12     7     8    2
    13     7     9   am
    14     9    10    1
    15    10    11    1
    16    11    13    1
    17    13    14   ar
    18    14    15   ar
    19    15    16   ar
    20    16    17   ar
    21    17    18    1
    22    17    19   ar
    23    23    26    1
    24    26    27   ar
    25    27    28   ar
    26    28    29   ar
    27    29    30    1
    28    29    31   ar
    29    31    32    1
    30    31    33   ar
    31     6     1    1
    32    19    13   ar
    33    33    26   ar
    34    11     4    1
    35    24    25    1
    36     9    12    1
