@<TRIPOS>MOLECULE
*****
 29 33 0 0 0
SMALL
GASTEIGER

@<TRIPOS>ATOM
      1 C          63.0517   90.3892   12.6949 C.ar    1  UNL1        0.1367
      2 N          63.6420   91.5321   11.9232 N.ar    1  UNL1       -0.2300
      3 C          64.9551   91.8886   12.5547 C.ar    1  UNL1        0.0987
      4 C          65.9779   92.9340   12.2217 C.ar    1  UNL1        0.0206
      5 C          67.2220   93.0569   13.0507 C.ar    1  UNL1        0.0016
      6 C          67.4432   92.1344   14.2126 C.ar    1  UNL1        0.0016
      7 C          66.4203   91.0890   14.5456 C.ar    1  UNL1        0.0191
      8 C          65.1763   90.9660   13.7166 C.ar    1  UNL1        0.0826
      9 N          63.9999   90.0394   13.8032 N.ar    1  UNL1       -0.2932
     10 C          63.8059   88.9536   14.8198 C.ar    1  UNL1        0.0651
     11 C          63.1456   89.2627   16.1306 C.ar    1  UNL1        0.0176
     12 C          62.9516   88.1769   17.1472 C.ar    1  UNL1        0.0015
     13 C          63.4179   86.7819   16.8529 C.ar    1  UNL1        0.0001
     14 C          64.0782   86.4728   15.5420 C.ar    1  UNL1        0.0015
     15 C          64.2722   87.5586   14.5254 C.ar    1  UNL1        0.0176
     16 C          61.7429   89.7147   12.4085 C.3     1  UNL1        0.1856
     17 O          60.1430   87.7273    7.8818 O.2     1  UNL1       -0.2422
     18 C          60.8849   87.5769    9.1767 C.2     1  UNL1        0.3644
     19 C          61.5688   86.2825    9.5033 C.3     1  UNL1        0.2333
     20 C          62.3108   86.1321   10.7983 C.2     1  UNL1        0.3159
     21 N          62.3688   87.2762   11.7666 N.2     1  UNL1       -0.0039
     22 C          61.6849   88.5707   11.4401 C.2     1  UNL1        0.3563
     23 N          60.9429   88.7211   10.1451 N.am    1  UNL1        0.0288
     24 N          62.9947   84.8376   11.1248 N.pl3   1  UNL1       -0.1888
     25 C          63.5226   83.9692   10.0216 C.3     1  UNL1        0.2343
     26 C          64.2066   82.6748   10.3480 C.3     1  UNL1        0.1929
     27 O          64.3626   82.2488   11.7778 O.3     1  UNL1       -0.3449
     28 C          63.8347   83.1172   12.8810 C.3     1  UNL1        0.1929
     29 C          63.1507   84.4116   12.5545 C.3     1  UNL1        0.2343
@<TRIPOS>BOND
     1    17    18    2
     2    18    19    1
     3    19    20    1
     4    20    24    1
     5    24    25    1
     6    25    26    1
     7    26    27    1
     8    27    28    1
     9    28    29    1
    10    20    21    2
    11    21    22    1
    12    22    16    1
    13    16     1    1
    14     1     2   ar
    15     2     3   ar
    16     3     4   ar
    17     4     5   ar
    18     5     6   ar
    19     6     7   ar
    20     7     8   ar
    21     8     9   ar
    22     9    10    1
    23    10    11   ar
    24    11    12   ar
    25    12    13   ar
    26    13    14   ar
    27    14    15   ar
    28    22    23    2
    29    23    18    1
    30    29    24    1
    31     9     1   ar
    32    15    10   ar
    33     8     3   ar
@<TRIPOS>MOLECULE
*****
 29 33 0 0 0
SMALL
GASTEIGER

@<TRIPOS>ATOM
      1 C          62.8948   90.0664   11.5951 C.ar    1  UNL1        0.1367
      2 N          63.3316   91.0560   10.5559 N.ar    1  UNL1       -0.2300
      3 C          64.4582   91.8635   11.1294 C.ar    1  UNL1        0.0987
      4 C          65.2813   92.9821   10.5626 C.ar    1  UNL1        0.0206
      5 C          66.3637   93.6102   11.3895 C.ar    1  UNL1        0.0016
      6 C          66.6231   93.1196   12.7831 C.ar    1  UNL1        0.0016
      7 C          65.8000   92.0011   13.3498 C.ar    1  UNL1        0.0191
      8 C          64.7175   91.3730   12.5230 C.ar    1  UNL1        0.0826
      9 N          63.7513   90.2623   12.8108 N.ar    1  UNL1       -0.2932
     10 C          63.6580   89.4842   14.0898 C.ar    1  UNL1        0.0651
     11 C          64.1711   88.0761   14.1501 C.ar    1  UNL1        0.0176
     12 C          64.0778   87.2979   15.4291 C.ar    1  UNL1        0.0015
     13 C          63.4714   87.9280   16.6478 C.ar    1  UNL1        0.0001
     14 C          62.9583   89.3362   16.5875 C.ar    1  UNL1        0.0015
     15 C          63.0516   90.1143   15.3085 C.ar    1  UNL1        0.0176
     16 C          61.7946   89.0579   11.4449 C.3     1  UNL1        0.1856
     17 O          62.6005   85.5851    7.6646 O.2     1  UNL1       -0.2422
     18 C          62.5177   85.9208    9.1242 C.2     1  UNL1        0.3644
     19 C          62.7550   84.8556   10.1534 C.3     1  UNL1        0.2333
     20 C          62.6722   85.1912   11.6130 C.2     1  UNL1        0.3159
     21 N          62.3521   86.5920   12.0435 N.2     1  UNL1       -0.0039
     22 C          62.1147   87.6572   11.0144 C.2     1  UNL1        0.3563
     23 N          62.1975   87.3216    9.5547 N.am    1  UNL1        0.0288
     24 N          62.9096   84.1260   12.6421 N.pl3   1  UNL1       -0.1888
     25 C          62.4668   84.3403   14.0592 C.3     1  UNL1        0.2343
     26 C          62.7041   83.2751   15.0883 C.3     1  UNL1        0.1929
     27 O          63.3843   81.9958   14.7003 O.3     1  UNL1       -0.3449
     28 C          63.8271   81.7815   13.2833 C.3     1  UNL1        0.1929
     29 C          63.5898   82.8466   12.2542 C.3     1  UNL1        0.2343
@<TRIPOS>BOND
     1    17    18    2
     2    18    19    1
     3    19    20    1
     4    20    24    1
     5    24    25    1
     6    25    26    1
     7    26    27    1
     8    27    28    1
     9    28    29    1
    10    20    21    2
    11    21    22    1
    12    22    16    1
    13    16     1    1
    14     1     2   ar
    15     2     3   ar
    16     3     4   ar
    17     4     5   ar
    18     5     6   ar
    19     6     7   ar
    20     7     8   ar
    21     8     9   ar
    22     9    10    1
    23    10    11   ar
    24    11    12   ar
    25    12    13   ar
    26    13    14   ar
    27    14    15   ar
    28    22    23    2
    29    23    18    1
    30    29    24    1
    31     9     1   ar
    32    15    10   ar
    33     8     3   ar
@<TRIPOS>MOLECULE
*****
 29 33 0 0 0
SMALL
GASTEIGER

@<TRIPOS>ATOM
      1 C          63.2148   88.0445   12.5686 C.ar    1  UNL1        0.1367
      2 N          63.9662   87.6230   13.7965 N.ar    1  UNL1       -0.2300
      3 C          63.9244   86.1256   13.8744 C.ar    1  UNL1        0.0987
      4 C          64.4936   85.1560   14.8672 C.ar    1  UNL1        0.0206
      5 C          64.2856   83.6823   14.6803 C.ar    1  UNL1        0.0016
      6 C          63.5084   83.1783   13.5005 C.ar    1  UNL1        0.0016
      7 C          62.9391   84.1479   12.5077 C.ar    1  UNL1        0.0191
      8 C          63.1471   85.6216   12.6947 C.ar    1  UNL1        0.0826
      9 N          62.7086   86.8075   11.8876 N.ar    1  UNL1       -0.2932
     10 C          61.9050   86.7641   10.6218 C.ar    1  UNL1        0.0651
     11 C          62.4156   86.0021    9.4350 C.ar    1  UNL1        0.0176
     12 C          61.6119   85.9587    8.1692 C.ar    1  UNL1        0.0015
     13 C          60.2976   86.6773    8.0902 C.ar    1  UNL1        0.0001
     14 C          59.7870   87.4393    9.2770 C.ar    1  UNL1        0.0015
     15 C          60.5906   87.4827   10.5428 C.ar    1  UNL1        0.0176
     16 C          63.0063   89.4552   12.1033 C.3     1  UNL1        0.1856
     17 O          65.1152   92.1512   16.0128 O.2     1  UNL1       -0.2422
     18 C          64.9687   91.8946   14.5422 C.2     1  UNL1        0.3644
     19 C          65.7302   92.7294   13.5557 C.3     1  UNL1        0.2333
     20 C          65.5837   92.4728   12.0851 C.2     1  UNL1        0.3159
     21 N          64.6758   91.3814   11.6010 N.2     1  UNL1       -0.0039
     22 C          63.9142   90.5465   12.5875 C.2     1  UNL1        0.3563
     23 N          64.0607   90.8031   14.0581 N.am    1  UNL1        0.0288
     24 N          66.3453   93.3077   11.0986 N.pl3   1  UNL1       -0.1888
     25 C          67.3148   92.6576   10.1565 C.3     1  UNL1        0.2343
     26 C          68.0763   93.4924    9.1701 C.3     1  UNL1        0.1929
     27 O          67.8683   94.9773    9.1257 O.3     1  UNL1       -0.3449
     28 C          66.8989   95.6273   10.0678 C.3     1  UNL1        0.1929
     29 C          66.1373   94.7925   11.0543 C.3     1  UNL1        0.2343
@<TRIPOS>BOND
     1    17    18    2
     2    18    19    1
     3    19    20    1
     4    20    24    1
     5    24    25    1
     6    25    26    1
     7    26    27    1
     8    27    28    1
     9    28    29    1
    10    20    21    2
    11    21    22    1
    12    22    16    1
    13    16     1    1
    14     1     2   ar
    15     2     3   ar
    16     3     4   ar
    17     4     5   ar
    18     5     6   ar
    19     6     7   ar
    20     7     8   ar
    21     8     9   ar
    22     9    10    1
    23    10    11   ar
    24    11    12   ar
    25    12    13   ar
    26    13    14   ar
    27    14    15   ar
    28    22    23    2
    29    23    18    1
    30    29    24    1
    31     9     1   ar
    32    15    10   ar
    33     8     3   ar
@<TRIPOS>MOLECULE
*****
 29 33 0 0 0
SMALL
GASTEIGER

@<TRIPOS>ATOM
      1 C          63.0480   86.3159   12.3894 C.ar    1  UNL1        0.1367
      2 N          63.4673   85.7087   13.6954 N.ar    1  UNL1       -0.2300
      3 C          63.3822   84.2170   13.5616 C.ar    1  UNL1        0.0987
      4 C          63.6735   83.1047   14.5249 C.ar    1  UNL1        0.0206
      5 C          63.4928   81.6777   14.0995 C.ar    1  UNL1        0.0016
      6 C          63.0209   81.3631   12.7109 C.ar    1  UNL1        0.0016
      7 C          62.7297   82.4754   11.7476 C.ar    1  UNL1        0.0191
      8 C          62.9103   83.9024   12.1730 C.ar    1  UNL1        0.0826
      9 N          62.7037   85.1995   11.4486 N.ar    1  UNL1       -0.2932
     10 C          62.2352   85.3532   10.0319 C.ar    1  UNL1        0.0651
     11 C          63.0788   84.8398    8.9030 C.ar    1  UNL1        0.0176
     12 C          62.6103   84.9936    7.4864 C.ar    1  UNL1        0.0015
     13 C          61.2980   85.6608    7.1987 C.ar    1  UNL1        0.0001
     14 C          60.4543   86.1743    8.3276 C.ar    1  UNL1        0.0015
     15 C          60.9229   86.0205    9.7442 C.ar    1  UNL1        0.0176
     16 C          62.9841   87.7820   12.0789 C.3     1  UNL1        0.1856
     17 O          63.3157   89.3114   17.0338 O.2     1  UNL1       -0.2422
     18 C          63.5937   89.5501   15.5792 C.2     1  UNL1        0.3644
     19 C          64.3156   90.7920   15.1475 C.3     1  UNL1        0.2333
     20 C          64.5937   91.0307   13.6930 C.2     1  UNL1        0.3159
     21 N          64.1499   90.0273   12.6701 N.2     1  UNL1       -0.0039
     22 C          63.4279   88.7853   13.1018 C.2     1  UNL1        0.3563
     23 N          63.1499   88.5467   14.5563 N.am    1  UNL1        0.0288
     24 N          65.3156   92.2727   13.2613 N.pl3   1  UNL1       -0.1888
     25 C          66.1037   93.0674   14.2599 C.3     1  UNL1        0.2343
     26 C          66.8256   94.3094   13.8283 C.3     1  UNL1        0.1929
     27 O          66.7594   94.7567   12.3981 O.3     1  UNL1       -0.3449
     28 C          65.9712   93.9619   11.3995 C.3     1  UNL1        0.1929
     29 C          65.2493   92.7200   11.8311 C.3     1  UNL1        0.2343
@<TRIPOS>BOND
     1    17    18    2
     2    18    19    1
     3    19    20    1
     4    20    24    1
     5    24    25    1
     6    25    26    1
     7    26    27    1
     8    27    28    1
     9    28    29    1
    10    20    21    2
    11    21    22    1
    12    22    16    1
    13    16     1    1
    14     1     2   ar
    15     2     3   ar
    16     3     4   ar
    17     4     5   ar
    18     5     6   ar
    19     6     7   ar
    20     7     8   ar
    21     8     9   ar
    22     9    10    1
    23    10    11   ar
    24    11    12   ar
    25    12    13   ar
    26    13    14   ar
    27    14    15   ar
    28    22    23    2
    29    23    18    1
    30    29    24    1
    31     9     1   ar
    32    15    10   ar
    33     8     3   ar
@<TRIPOS>MOLECULE
*****
 29 33 0 0 0
SMALL
GASTEIGER

@<TRIPOS>ATOM
      1 C          63.0632   88.5596   12.1592 C.ar    1  UNL1        0.1367
      2 N          63.8379   88.2929   13.4156 N.ar    1  UNL1       -0.2300
      3 C          63.8322   86.8126   13.6583 C.ar    1  UNL1        0.0987
      4 C          64.4352   85.9712   14.7439 C.ar    1  UNL1        0.0206
      5 C          64.2598   84.4817   14.7230 C.ar    1  UNL1        0.0016
      6 C          63.4816   83.8336   13.6165 C.ar    1  UNL1        0.0016
      7 C          62.8787   84.6750   12.5310 C.ar    1  UNL1        0.0191
      8 C          63.0540   86.1645   12.5519 C.ar    1  UNL1        0.0826
      9 N          62.5787   87.2442   11.6254 N.ar    1  UNL1       -0.2932
     10 C          61.7623   87.0436   10.3831 C.ar    1  UNL1        0.0651
     11 C          62.2999   86.2089    9.2588 C.ar    1  UNL1        0.0176
     12 C          61.4835   86.0084    8.0166 C.ar    1  UNL1        0.0015
     13 C          60.1293   86.6426    7.8986 C.ar    1  UNL1        0.0001
     14 C          59.5915   87.4773    9.0229 C.ar    1  UNL1        0.0015
     15 C          60.4080   87.6779   10.2652 C.ar    1  UNL1        0.0176
     16 C          62.8163   89.9054   11.5445 C.3     1  UNL1        0.1856
     17 O          65.3054   93.9677    9.4702 O.2     1  UNL1       -0.2422
     18 C          65.1047   93.0092   10.6064 C.2     1  UNL1        0.3644
     19 C          65.9478   93.1234   11.8418 C.3     1  UNL1        0.2333
     20 C          65.7470   92.1650   12.9781 C.2     1  UNL1        0.3159
     21 N          64.7033   91.0923   12.8790 N.2     1  UNL1       -0.0039
     22 C          63.8601   90.9781   11.6436 C.2     1  UNL1        0.3563
     23 N          64.0608   91.9365   10.5073 N.am    1  UNL1        0.0288
     24 N          66.5902   92.2792   14.2135 N.pl3   1  UNL1       -0.1888
     25 C          68.0854   92.2212   14.1090 C.3     1  UNL1        0.2343
     26 C          68.9286   92.3355   15.3443 C.3     1  UNL1        0.1929
     27 O          68.2765   92.5077   16.6840 O.3     1  UNL1       -0.3449
     28 C          66.7812   92.5657   16.7885 C.3     1  UNL1        0.1929
     29 C          65.9381   92.4515   15.5532 C.3     1  UNL1        0.2343
@<TRIPOS>BOND
     1    17    18    2
     2    18    19    1
     3    19    20    1
     4    20    24    1
     5    24    25    1
     6    25    26    1
     7    26    27    1
     8    27    28    1
     9    28    29    1
    10    20    21    2
    11    21    22    1
    12    22    16    1
    13    16     1    1
    14     1     2   ar
    15     2     3   ar
    16     3     4   ar
    17     4     5   ar
    18     5     6   ar
    19     6     7   ar
    20     7     8   ar
    21     8     9   ar
    22     9    10    1
    23    10    11   ar
    24    11    12   ar
    25    12    13   ar
    26    13    14   ar
    27    14    15   ar
    28    22    23    2
    29    23    18    1
    30    29    24    1
    31     9     1   ar
    32    15    10   ar
    33     8     3   ar
@<TRIPOS>MOLECULE
*****
 29 33 0 0 0
SMALL
GASTEIGER

@<TRIPOS>ATOM
      1 C          64.3931   89.6262   13.9991 C.ar    1  UNL1        0.1367
      2 N          63.3641   89.2494   12.9748 N.ar    1  UNL1       -0.2300
      3 C          63.4251   90.2559   11.8643 C.ar    1  UNL1        0.0987
      4 C          62.6472   90.3918   10.5891 C.ar    1  UNL1        0.0206
      5 C          62.9360   91.5267    9.6517 C.ar    1  UNL1        0.0016
      6 C          64.0028   92.5256    9.9896 C.ar    1  UNL1        0.0016
      7 C          64.7808   92.3896   11.2648 C.ar    1  UNL1        0.0191
      8 C          64.4919   91.2548   12.2022 C.ar    1  UNL1        0.0826
      9 N          65.0902   90.8656   13.5215 N.ar    1  UNL1       -0.2932
     10 C          66.1921   91.5889   14.2376 C.ar    1  UNL1        0.0651
     11 C          65.9272   92.2325   15.5662 C.ar    1  UNL1        0.0176
     12 C          67.0290   92.9558   16.2823 C.ar    1  UNL1        0.0015
     13 C          68.3959   93.0354   15.6697 C.ar    1  UNL1        0.0001
     14 C          68.6609   92.3918   14.3410 C.ar    1  UNL1        0.0015
     15 C          67.5590   91.6685   13.6249 C.ar    1  UNL1        0.0176
     16 C          64.6755   88.8925   15.2765 C.3     1  UNL1        0.1856
     17 O          61.8449   85.8294   18.3757 O.2     1  UNL1       -0.2422
     18 C          62.5978   86.0425   17.0959 C.2     1  UNL1        0.3644
     19 C          62.6883   84.9371   16.0860 C.3     1  UNL1        0.2333
     20 C          63.4412   85.1502   14.8063 C.2     1  UNL1        0.3159
     21 N          64.1036   86.4686   14.5364 N.2     1  UNL1       -0.0039
     22 C          64.0131   87.5741   15.5464 C.2     1  UNL1        0.3563
     23 N          63.2602   87.3610   16.8261 N.am    1  UNL1        0.0288
     24 N          63.5316   84.0447   13.7964 N.pl3   1  UNL1       -0.1888
     25 C          63.6459   82.6202   14.2520 C.3     1  UNL1        0.2343
     26 C          63.7364   81.5147   13.2421 C.3     1  UNL1        0.1929
     27 O          63.7125   81.8339   11.7767 O.3     1  UNL1       -0.3449
     28 C          63.5982   83.2584   11.3211 C.3     1  UNL1        0.1929
     29 C          63.5078   84.3638   12.3309 C.3     1  UNL1        0.2343
@<TRIPOS>BOND
     1    17    18    2
     2    18    19    1
     3    19    20    1
     4    20    24    1
     5    24    25    1
     6    25    26    1
     7    26    27    1
     8    27    28    1
     9    28    29    1
    10    20    21    2
    11    21    22    1
    12    22    16    1
    13    16     1    1
    14     1     2   ar
    15     2     3   ar
    16     3     4   ar
    17     4     5   ar
    18     5     6   ar
    19     6     7   ar
    20     7     8   ar
    21     8     9   ar
    22     9    10    1
    23    10    11   ar
    24    11    12   ar
    25    12    13   ar
    26    13    14   ar
    27    14    15   ar
    28    22    23    2
    29    23    18    1
    30    29    24    1
    31     9     1   ar
    32    15    10   ar
    33     8     3   ar
@<TRIPOS>MOLECULE
*****
 29 33 0 0 0
SMALL
GASTEIGER

@<TRIPOS>ATOM
      1 C          63.8804   88.9343   13.3646 C.ar    1  UNL1        0.1367
      2 N          62.9520   88.1790   12.4604 N.ar    1  UNL1       -0.2300
      3 C          62.6083   89.0675   11.3018 C.ar    1  UNL1        0.0987
      4 C          61.7359   88.8573   10.0999 C.ar    1  UNL1        0.0206
      5 C          61.5795   89.9516    9.0861 C.ar    1  UNL1        0.0016
      6 C          62.2954   91.2562    9.2742 C.ar    1  UNL1        0.0016
      7 C          63.1678   91.4665   10.4761 C.ar    1  UNL1        0.0191
      8 C          63.3243   90.3722   11.4899 C.ar    1  UNL1        0.0826
      9 N          64.1105   90.2898   12.7648 N.ar    1  UNL1       -0.2932
     10 C          64.9749   91.3729   13.3389 C.ar    1  UNL1        0.0651
     11 C          65.5688   92.4151   12.4384 C.ar    1  UNL1        0.0176
     12 C          66.4332   93.4981   13.0126 C.ar    1  UNL1        0.0015
     13 C          66.7039   93.5390   14.4874 C.ar    1  UNL1        0.0001
     14 C          66.1101   92.4967   15.3880 C.ar    1  UNL1        0.0015
     15 C          65.2456   91.4137   14.8138 C.ar    1  UNL1        0.0176
     16 C          64.4744   88.4239   14.6438 C.3     1  UNL1        0.1856
     17 O          62.2615   86.2306   18.8023 O.2     1  UNL1       -0.2422
     18 C          62.7765   86.1250   17.3974 C.2     1  UNL1        0.3644
     19 C          62.7000   84.8172   16.6669 C.3     1  UNL1        0.2333
     20 C          63.2150   84.7116   15.2620 C.2     1  UNL1        0.3159
     21 N          63.8064   85.9138   14.5877 N.2     1  UNL1       -0.0039
     22 C          63.8830   87.2217   15.3182 C.2     1  UNL1        0.3563
     23 N          63.3680   87.3273   16.7231 N.am    1  UNL1        0.0288
     24 N          63.1385   83.4036   14.5315 N.pl3   1  UNL1       -0.1888
     25 C          64.2191   83.0205   13.5643 C.3     1  UNL1        0.2343
     26 C          64.1426   81.7126   12.8339 C.3     1  UNL1        0.1929
     27 O          62.9855   80.7880   13.0705 O.3     1  UNL1       -0.3449
     28 C          61.9049   81.1711   14.0377 C.3     1  UNL1        0.1929
     29 C          61.9814   82.4790   14.7682 C.3     1  UNL1        0.2343
@<TRIPOS>BOND
     1    17    18    2
     2    18    19    1
     3    19    20    1
     4    20    24    1
     5    24    25    1
     6    25    26    1
     7    26    27    1
     8    27    28    1
     9    28    29    1
    10    20    21    2
    11    21    22    1
    12    22    16    1
    13    16     1    1
    14     1     2   ar
    15     2     3   ar
    16     3     4   ar
    17     4     5   ar
    18     5     6   ar
    19     6     7   ar
    20     7     8   ar
    21     8     9   ar
    22     9    10    1
    23    10    11   ar
    24    11    12   ar
    25    12    13   ar
    26    13    14   ar
    27    14    15   ar
    28    22    23    2
    29    23    18    1
    30    29    24    1
    31     9     1   ar
    32    15    10   ar
    33     8     3   ar
@<TRIPOS>MOLECULE
*****
 29 33 0 0 0
SMALL
GASTEIGER

@<TRIPOS>ATOM
      1 C          62.3030   87.4167   11.9407 C.ar    1  UNL1        0.1367
      2 N          63.2009   86.5831   12.8060 N.ar    1  UNL1       -0.2300
      3 C          63.4325   85.2751   12.1091 C.ar    1  UNL1        0.0987
      4 C          64.2332   84.0644   12.4872 C.ar    1  UNL1        0.0206
      5 C          64.2790   82.8789   11.5693 C.ar    1  UNL1        0.0016
      6 C          63.5241   82.9042   10.2734 C.ar    1  UNL1        0.0016
      7 C          62.7234   84.1149    9.8953 C.ar    1  UNL1        0.0191
      8 C          62.6776   85.3003   10.8131 C.ar    1  UNL1        0.0826
      9 N          61.9795   86.6239   10.7091 N.ar    1  UNL1       -0.2932
     10 C          61.1106   87.0755    9.5728 C.ar    1  UNL1        0.0651
     11 C          60.4200   86.0628    8.7084 C.ar    1  UNL1        0.0176
     12 C          59.5510   86.5143    7.5721 C.ar    1  UNL1        0.0015
     13 C          59.3727   87.9786    7.3003 C.ar    1  UNL1        0.0001
     14 C          60.0633   88.9914    8.1648 C.ar    1  UNL1        0.0015
     15 C          60.9322   88.5399    9.3010 C.ar    1  UNL1        0.0176
     16 C          61.8142   88.8002   12.2524 C.3     1  UNL1        0.1856
     17 O          63.6052   90.7606   16.7188 O.2     1  UNL1       -0.2422
     18 C          63.5973   90.7419   15.2189 C.2     1  UNL1        0.3644
     19 C          64.4768   91.6847   14.4524 C.3     1  UNL1        0.2333
     20 C          64.4688   91.6660   12.9526 C.2     1  UNL1        0.3159
     21 N          63.5813   90.7045   12.2192 N.2     1  UNL1       -0.0039
     22 C          62.7017   89.7617   12.9857 C.2     1  UNL1        0.3563
     23 N          62.7097   89.7804   14.4856 N.am    1  UNL1        0.0288
     24 N          65.3484   92.6089   12.1861 N.pl3   1  UNL1       -0.1888
     25 C          65.9575   93.7939   12.8750 C.3     1  UNL1        0.2343
     26 C          66.8370   94.7367   12.1086 C.3     1  UNL1        0.1929
     27 O          67.1074   94.4945   10.6532 O.3     1  UNL1       -0.3449
     28 C          66.4983   93.3095    9.9643 C.3     1  UNL1        0.1929
     29 C          65.6188   92.3667   10.7307 C.3     1  UNL1        0.2343
@<TRIPOS>BOND
     1    17    18    2
     2    18    19    1
     3    19    20    1
     4    20    24    1
     5    24    25    1
     6    25    26    1
     7    26    27    1
     8    27    28    1
     9    28    29    1
    10    20    21    2
    11    21    22    1
    12    22    16    1
    13    16     1    1
    14     1     2   ar
    15     2     3   ar
    16     3     4   ar
    17     4     5   ar
    18     5     6   ar
    19     6     7   ar
    20     7     8   ar
    21     8     9   ar
    22     9    10    1
    23    10    11   ar
    24    11    12   ar
    25    12    13   ar
    26    13    14   ar
    27    14    15   ar
    28    22    23    2
    29    23    18    1
    30    29    24    1
    31     9     1   ar
    32    15    10   ar
    33     8     3   ar
@<TRIPOS>MOLECULE
*****
 29 33 0 0 0
SMALL
GASTEIGER

@<TRIPOS>ATOM
      1 C          62.3067   86.9260   11.1668 C.ar    1  UNL1        0.1367
      2 N          61.3875   86.0150   10.4083 N.ar    1  UNL1       -0.2300
      3 C          60.6275   86.8445    9.4162 C.ar    1  UNL1        0.0987
      4 C          59.5843   86.4874    8.3993 C.ar    1  UNL1        0.0206
      5 C          58.9905   87.5540    7.5277 C.ar    1  UNL1        0.0016
      6 C          59.4399   88.9777    7.6730 C.ar    1  UNL1        0.0016
      7 C          60.4831   89.3348    8.6900 C.ar    1  UNL1        0.0191
      8 C          61.0769   88.2682    9.5616 C.ar    1  UNL1        0.0826
      9 N          62.1147   88.3185   10.6435 N.ar    1  UNL1       -0.2932
     10 C          62.8341   89.5460   11.1186 C.ar    1  UNL1        0.0651
     11 C          63.1982   89.6886   12.5667 C.ar    1  UNL1        0.0176
     12 C          63.9176   90.9161   13.0419 C.ar    1  UNL1        0.0015
     13 C          64.2730   92.0009   12.0689 C.ar    1  UNL1        0.0001
     14 C          63.9090   91.8584   10.6208 C.ar    1  UNL1        0.0015
     15 C          63.1895   90.6309   10.1456 C.ar    1  UNL1        0.0176
     16 C          63.2518   86.5163   12.2572 C.3     1  UNL1        0.1856
     17 O          62.3995   83.9761   16.7093 O.2     1  UNL1       -0.2422
     18 C          62.6047   83.9604   15.2234 C.2     1  UNL1        0.3644
     19 C          62.5889   82.6590   14.4779 C.3     1  UNL1        0.2333
     20 C          62.7941   82.6433   12.9920 C.2     1  UNL1        0.3159
     21 N          63.0151   83.9290   12.2518 N.2     1  UNL1       -0.0039
     22 C          63.0308   85.2306   12.9974 C.2     1  UNL1        0.3563
     23 N          62.8256   85.2463   14.4832 N.am    1  UNL1        0.0288
     24 N          62.7783   81.3417   12.2465 N.pl3   1  UNL1       -0.1888
     25 C          62.4780   80.0645   12.9735 C.3     1  UNL1        0.2343
     26 C          62.4623   78.7630   12.2280 C.3     1  UNL1        0.1929
     27 O          62.7468   78.7388   10.7554 O.3     1  UNL1       -0.3449
     28 C          63.0471   80.0160   10.0284 C.3     1  UNL1        0.1929
     29 C          63.0628   81.3174   10.7739 C.3     1  UNL1        0.2343
@<TRIPOS>BOND
     1    17    18    2
     2    18    19    1
     3    19    20    1
     4    20    24    1
     5    24    25    1
     6    25    26    1
     7    26    27    1
     8    27    28    1
     9    28    29    1
    10    20    21    2
    11    21    22    1
    12    22    16    1
    13    16     1    1
    14     1     2   ar
    15     2     3   ar
    16     3     4   ar
    17     4     5   ar
    18     5     6   ar
    19     6     7   ar
    20     7     8   ar
    21     8     9   ar
    22     9    10    1
    23    10    11   ar
    24    11    12   ar
    25    12    13   ar
    26    13    14   ar
    27    14    15   ar
    28    22    23    2
    29    23    18    1
    30    29    24    1
    31     9     1   ar
    32    15    10   ar
    33     8     3   ar
