@<TRIPOS>MOLECULE
*****
 26 28 0 0 0
SMALL
GASTEIGER

@<TRIPOS>ATOM
      1 C          62.5447   90.7884   10.1847 C.3     1  UNL1        0.0522
      2 C          63.0335   90.2547   11.4986 C.ar    1  UNL1        0.0625
      3 C          63.5285   91.1985   12.5541 C.ar    1  UNL1        0.0522
      4 C          64.0173   90.6647   13.8679 C.ar    1  UNL1        0.1482
      5 C          64.0112   89.1871   14.1262 C.ar    1  UNL1        0.0612
      6 C          63.5162   88.2434   13.0707 C.ar    1  UNL1        0.1374
      7 N          63.0274   88.7771   11.7568 N.ar    1  UNL1       -0.2449
      8 C          63.5101   86.7657   13.3289 C.2     1  UNL1        0.2684
      9 O          64.3867   86.1880   14.4003 O.2     1  UNL1       -0.2681
     10 N          62.6274   85.8659   12.5158 N.am    1  UNL1       -0.2646
     11 H          62.0520   86.2451   11.8127 H       1  UNL1        0.1566
     12 C          62.6212   84.3883   12.7741 C.ar    1  UNL1        0.1345
     13 C          62.8385   83.4282   11.6423 C.ar    1  UNL1        0.0354
     14 C          62.8323   81.9506   11.9006 C.ar    1  UNL1        0.0158
     15 C          62.6089   81.4332   13.2907 C.ar    1  UNL1        0.0769
     16 CL         62.6027   79.9555   13.5489 Cl      1  UNL1       -0.0806
     17 C          62.3916   82.3933   14.4225 C.ar    1  UNL1        0.1116
     18 N          62.3978   83.8708   14.1642 N.ar    1  UNL1       -0.2281
     19 O          64.5123   91.6086   14.9235 O.3     1  UNL1       -0.4518
     20 C          65.9635   91.9849   14.9722 C.ar    1  UNL1        0.1666
     21 C          66.5037   92.7387   16.1513 C.ar    1  UNL1        0.1364
     22 N          67.9549   93.1151   16.2000 N.ar    1  UNL1       -0.2368
     23 C          68.8659   92.7377   15.0696 C.ar    1  UNL1        0.1286
     24 C          68.3257   91.9840   13.8906 C.ar    1  UNL1        0.1623
     25 F          69.2368   91.6067   12.7602 F       1  UNL1       -0.2024
     26 C          66.8745   91.6076   13.8419 C.ar    1  UNL1        0.0703
@<TRIPOS>BOND
     1     1     2    1
     2     2     3   ar
     3     3     4   ar
     4     4    19    1
     5    19    20    1
     6    20    21   ar
     7    21    22   ar
     8    22    23   ar
     9    23    24   ar
    10    24    25    1
    11    24    26   ar
    12     4     5   ar
    13     5     6   ar
    14     6     8    1
    15     8     9    2
    16     8    10   am
    17    10    12    1
    18    12    13   ar
    19    13    14   ar
    20    14    15   ar
    21    15    16    1
    22    15    17   ar
    23    17    18   ar
    24     6     7   ar
    25     7     2   ar
    26    26    20   ar
    27    18    12   ar
    28    10    11    1
@<TRIPOS>MOLECULE
*****
 26 28 0 0 0
SMALL
GASTEIGER

@<TRIPOS>ATOM
      1 C          63.1994   89.5699   16.7327 C.3     1  UNL1        0.0522
      2 C          63.5725   90.0748   15.3703 C.ar    1  UNL1        0.0625
      3 C          64.5186   91.2305   15.2319 C.ar    1  UNL1        0.0522
      4 C          64.8917   91.7353   13.8696 C.ar    1  UNL1        0.1482
      5 C          64.3188   91.0844   12.6457 C.ar    1  UNL1        0.0612
      6 C          63.3728   89.9286   12.7841 C.ar    1  UNL1        0.1374
      7 N          62.9996   89.4238   14.1464 N.ar    1  UNL1       -0.2449
      8 C          62.7998   89.2777   11.5601 C.2     1  UNL1        0.2684
      9 O          62.6134   90.0757   10.3038 O.2     1  UNL1       -0.2681
     10 N          62.4133   87.8287   11.5926 N.am    1  UNL1       -0.2646
     11 H          62.5357   87.3049   12.4171 H       1  UNL1        0.1566
     12 C          61.8403   87.1777   10.3686 C.ar    1  UNL1        0.1345
     13 C          62.6863   86.2516    9.5460 C.ar    1  UNL1        0.0354
     14 C          62.1133   85.6007    8.3221 C.ar    1  UNL1        0.0158
     15 C          60.6944   85.8758    7.9208 C.ar    1  UNL1        0.0769
     16 CL         60.1214   85.2249    6.6969 Cl      1  UNL1       -0.0806
     17 C          59.8485   86.8019    8.7434 C.ar    1  UNL1        0.1116
     18 N          60.4214   87.4528    9.9673 N.ar    1  UNL1       -0.2281
     19 O          65.8379   92.8911   13.7313 O.3     1  UNL1       -0.4518
     20 C          66.3445   93.2875   12.3762 C.ar    1  UNL1        0.1666
     21 C          66.1722   94.6975   11.8941 C.ar    1  UNL1        0.1364
     22 N          66.6788   95.0939   10.5390 N.ar    1  UNL1       -0.2368
     23 C          67.3577   94.0804    9.6661 C.ar    1  UNL1        0.1286
     24 C          67.5300   92.6705   10.1483 C.ar    1  UNL1        0.1623
     25 F          68.2089   91.6570    9.2753 F       1  UNL1       -0.2024
     26 C          67.0234   92.2741   11.5033 C.ar    1  UNL1        0.0703
@<TRIPOS>BOND
     1     1     2    1
     2     2     3   ar
     3     3     4   ar
     4     4    19    1
     5    19    20    1
     6    20    21   ar
     7    21    22   ar
     8    22    23   ar
     9    23    24   ar
    10    24    25    1
    11    24    26   ar
    12     4     5   ar
    13     5     6   ar
    14     6     8    1
    15     8     9    2
    16     8    10   am
    17    10    12    1
    18    12    13   ar
    19    13    14   ar
    20    14    15   ar
    21    15    16    1
    22    15    17   ar
    23    17    18   ar
    24     6     7   ar
    25     7     2   ar
    26    26    20   ar
    27    18    12   ar
    28    10    11    1
@<TRIPOS>MOLECULE
*****
 26 28 0 0 0
SMALL
GASTEIGER

@<TRIPOS>ATOM
      1 C          62.3748   87.0626   18.3737 C.3     1  UNL1        0.0522
      2 C          63.1113   87.1102   17.0678 C.ar    1  UNL1        0.0625
      3 C          63.6701   85.8506   16.4755 C.ar    1  UNL1        0.0522
      4 C          64.4066   85.8982   15.1696 C.ar    1  UNL1        0.1482
      5 C          64.5842   87.2056   14.4560 C.ar    1  UNL1        0.0612
      6 C          64.0253   88.4652   15.0483 C.ar    1  UNL1        0.1374
      7 N          63.2888   88.4176   16.3542 N.ar    1  UNL1       -0.2449
      8 C          64.2029   89.7727   14.3347 C.2     1  UNL1        0.2684
      9 O          63.0321   90.4239   13.6601 O.2     1  UNL1       -0.2681
     10 N          65.5512   90.4288   14.2957 N.am    1  UNL1       -0.2646
     11 H          66.3196   90.0013   14.7384 H       1  UNL1        0.1566
     12 C          65.7287   91.7362   13.5820 C.ar    1  UNL1        0.1345
     13 C          65.4045   91.8435   12.1215 C.ar    1  UNL1        0.0354
     14 C          65.5820   93.1509   11.4079 C.ar    1  UNL1        0.0158
     15 C          66.0838   94.3510   12.1550 C.ar    1  UNL1        0.0769
     16 CL         66.2614   95.6584   11.4414 Cl      1  UNL1       -0.0806
     17 C          66.4081   94.2436   13.6155 C.ar    1  UNL1        0.1116
     18 N          66.2305   92.9363   14.3291 N.ar    1  UNL1       -0.2281
     19 O          64.9655   84.6385   14.5773 O.3     1  UNL1       -0.4518
     20 C          64.0655   83.6945   13.8364 C.ar    1  UNL1        0.1666
     21 C          64.1595   83.5851   12.3433 C.ar    1  UNL1        0.1364
     22 N          63.2595   82.6411   11.6024 N.ar    1  UNL1       -0.2368
     23 C          62.2656   81.8066   12.3546 C.ar    1  UNL1        0.1286
     24 C          62.1716   81.9160   13.8476 C.ar    1  UNL1        0.1623
     25 F          61.1777   81.0815   14.5998 F       1  UNL1       -0.2024
     26 C          63.0716   82.8600   14.5885 C.ar    1  UNL1        0.0703
@<TRIPOS>BOND
     1     1     2    1
     2     2     3   ar
     3     3     4   ar
     4     4    19    1
     5    19    20    1
     6    20    21   ar
     7    21    22   ar
     8    22    23   ar
     9    23    24   ar
    10    24    25    1
    11    24    26   ar
    12     4     5   ar
    13     5     6   ar
    14     6     8    1
    15     8     9    2
    16     8    10   am
    17    10    12    1
    18    12    13   ar
    19    13    14   ar
    20    14    15   ar
    21    15    16    1
    22    15    17   ar
    23    17    18   ar
    24     6     7   ar
    25     7     2   ar
    26    26    20   ar
    27    18    12   ar
    28    10    11    1
@<TRIPOS>MOLECULE
*****
 26 28 0 0 0
SMALL
GASTEIGER

@<TRIPOS>ATOM
      1 C          61.8845   90.3937    9.4177 C.3     1  UNL1        0.0522
      2 C          62.5103   90.0399   10.7341 C.ar    1  UNL1        0.0625
      3 C          63.0661   91.1195   11.6147 C.ar    1  UNL1        0.0522
      4 C          63.6920   90.7657   12.9312 C.ar    1  UNL1        0.1482
      5 C          63.7621   89.3321   13.3671 C.ar    1  UNL1        0.0612
      6 C          63.2063   88.2525   12.4865 C.ar    1  UNL1        0.1374
      7 N          62.5804   88.6063   11.1701 N.ar    1  UNL1       -0.2449
      8 C          63.2764   86.8189   12.9224 C.2     1  UNL1        0.2684
      9 O          64.0868   86.4398   14.1264 O.2     1  UNL1       -0.2681
     10 N          62.5361   85.7644   12.1543 N.am    1  UNL1       -0.2646
     11 H          62.0043   86.0132   11.3641 H       1  UNL1        0.1566
     12 C          62.6062   84.3308   12.5902 C.ar    1  UNL1        0.1345
     13 C          62.9927   83.2660   11.6070 C.ar    1  UNL1        0.0354
     14 C          63.0628   81.8325   12.0429 C.ar    1  UNL1        0.0158
     15 C          62.7463   81.4637   13.4621 C.ar    1  UNL1        0.0769
     16 CL         62.8164   80.0301   13.8980 Cl      1  UNL1       -0.0806
     17 C          62.3598   82.5285   14.4453 C.ar    1  UNL1        0.1116
     18 N          62.2897   83.9621   14.0093 N.ar    1  UNL1       -0.2281
     19 O          64.2478   91.8454   13.8117 O.3     1  UNL1       -0.4518
     20 C          65.7310   91.9750   13.9943 C.ar    1  UNL1        0.1666
     21 C          66.6265   92.0930   12.7967 C.ar    1  UNL1        0.1364
     22 N          68.1097   92.2226   12.9793 N.ar    1  UNL1       -0.2368
     23 C          68.6974   92.2341   14.3594 C.ar    1  UNL1        0.1286
     24 C          67.8018   92.1161   15.5569 C.ar    1  UNL1        0.1623
     25 F          68.3894   92.1276   16.9370 F       1  UNL1       -0.2024
     26 C          66.3186   91.9865   15.3743 C.ar    1  UNL1        0.0703
@<TRIPOS>BOND
     1     1     2    1
     2     2     3   ar
     3     3     4   ar
     4     4    19    1
     5    19    20    1
     6    20    21   ar
     7    21    22   ar
     8    22    23   ar
     9    23    24   ar
    10    24    25    1
    11    24    26   ar
    12     4     5   ar
    13     5     6   ar
    14     6     8    1
    15     8     9    2
    16     8    10   am
    17    10    12    1
    18    12    13   ar
    19    13    14   ar
    20    14    15   ar
    21    15    16    1
    22    15    17   ar
    23    17    18   ar
    24     6     7   ar
    25     7     2   ar
    26    26    20   ar
    27    18    12   ar
    28    10    11    1
@<TRIPOS>MOLECULE
*****
 26 28 0 0 0
SMALL
GASTEIGER

@<TRIPOS>ATOM
      1 C          59.0696   90.4889   11.5586 C.3     1  UNL1        0.0522
      2 C          60.3308   89.6800   11.6302 C.ar    1  UNL1        0.0625
      3 C          60.4236   88.3699   10.9058 C.ar    1  UNL1        0.0522
      4 C          61.6848   87.5610   10.9774 C.ar    1  UNL1        0.1482
      5 C          62.8531   88.0622   11.7733 C.ar    1  UNL1        0.0612
      6 C          62.7603   89.3724   12.4977 C.ar    1  UNL1        0.1374
      7 N          61.4991   90.1813   12.4261 N.ar    1  UNL1       -0.2449
      8 C          63.9287   89.8737   13.2938 C.2     1  UNL1        0.2684
      9 O          64.5912   88.9784   14.2985 O.2     1  UNL1       -0.2681
     10 N          64.4344   91.2704   13.0851 N.am    1  UNL1       -0.2646
     11 H          63.9996   91.8580   12.4257 H       1  UNL1        0.1566
     12 C          65.6028   91.7717   13.8812 C.ar    1  UNL1        0.1345
     13 C          66.9746   91.7819   13.2746 C.ar    1  UNL1        0.0354
     14 C          68.1429   92.2832   14.0706 C.ar    1  UNL1        0.0158
     15 C          67.9394   92.7743   15.4733 C.ar    1  UNL1        0.0769
     16 CL         69.1078   93.2757   16.2693 Cl      1  UNL1       -0.0806
     17 C          66.5676   92.7641   16.0798 C.ar    1  UNL1        0.1116
     18 N          65.3993   92.2628   15.2838 N.ar    1  UNL1       -0.2281
     19 O          61.7775   86.2507   10.2529 O.3     1  UNL1       -0.4518
     20 C          62.5010   85.0963   10.8805 C.ar    1  UNL1        0.1666
     21 C          62.4093   84.8689   12.3604 C.ar    1  UNL1        0.1364
     22 N          63.1327   83.7145   12.9881 N.ar    1  UNL1       -0.2368
     23 C          63.9479   82.7874   12.1358 C.ar    1  UNL1        0.1286
     24 C          64.0395   83.0149   10.6560 C.ar    1  UNL1        0.1623
     25 F          64.8546   82.0878    9.8038 F       1  UNL1       -0.2024
     26 C          63.3161   84.1693   10.0284 C.ar    1  UNL1        0.0703
@<TRIPOS>BOND
     1     1     2    1
     2     2     3   ar
     3     3     4   ar
     4     4    19    1
     5    19    20    1
     6    20    21   ar
     7    21    22   ar
     8    22    23   ar
     9    23    24   ar
    10    24    25    1
    11    24    26   ar
    12     4     5   ar
    13     5     6   ar
    14     6     8    1
    15     8     9    2
    16     8    10   am
    17    10    12    1
    18    12    13   ar
    19    13    14   ar
    20    14    15   ar
    21    15    16    1
    22    15    17   ar
    23    17    18   ar
    24     6     7   ar
    25     7     2   ar
    26    26    20   ar
    27    18    12   ar
    28    10    11    1
@<TRIPOS>MOLECULE
*****
 26 28 0 0 0
SMALL
GASTEIGER

@<TRIPOS>ATOM
      1 C          59.0858   88.2202    7.6709 C.3     1  UNL1        0.0522
      2 C          60.2387   87.8335    8.5491 C.ar    1  UNL1        0.0625
      3 C          60.9086   86.5041    8.3653 C.ar    1  UNL1        0.0522
      4 C          62.0615   86.1174    9.2436 C.ar    1  UNL1        0.1482
      5 C          62.5445   87.0601   10.3056 C.ar    1  UNL1        0.0612
      6 C          61.8746   88.3895   10.4894 C.ar    1  UNL1        0.1374
      7 N          60.7217   88.7762    9.6112 N.ar    1  UNL1       -0.2449
      8 C          62.3575   89.3323   11.5515 C.2     1  UNL1        0.2684
      9 O          62.0236   90.7922   11.4667 O.2     1  UNL1       -0.2681
     10 N          63.1744   88.8152   12.6983 N.am    1  UNL1       -0.2646
     11 H          63.3936   87.8571   12.7540 H       1  UNL1        0.1566
     12 C          63.6574   89.7580   13.7604 C.ar    1  UNL1        0.1345
     13 C          64.8171   90.6683   13.4843 C.ar    1  UNL1        0.0354
     14 C          65.3000   91.6111   14.5463 C.ar    1  UNL1        0.0158
     15 C          64.6232   91.6435   15.8845 C.ar    1  UNL1        0.0769
     16 CL         65.1061   92.5863   16.9466 Cl      1  UNL1       -0.0806
     17 C          63.4634   90.7332   16.1607 C.ar    1  UNL1        0.1116
     18 N          62.9805   89.7905   15.0987 N.ar    1  UNL1       -0.2281
     19 O          62.7314   84.7879    9.0597 O.3     1  UNL1       -0.4518
     20 C          63.1875   84.0061   10.2559 C.ar    1  UNL1        0.1666
     21 C          64.3606   83.0782   10.1426 C.ar    1  UNL1        0.1364
     22 N          64.8167   82.2964   11.3388 N.ar    1  UNL1       -0.2368
     23 C          64.0997   82.4426   12.6482 C.ar    1  UNL1        0.1286
     24 C          62.9267   83.3706   12.7615 C.ar    1  UNL1        0.1623
     25 F          62.2097   83.5168   14.0709 F       1  UNL1       -0.2024
     26 C          62.4706   84.1523   11.5653 C.ar    1  UNL1        0.0703
@<TRIPOS>BOND
     1     1     2    1
     2     2     3   ar
     3     3     4   ar
     4     4    19    1
     5    19    20    1
     6    20    21   ar
     7    21    22   ar
     8    22    23   ar
     9    23    24   ar
    10    24    25    1
    11    24    26   ar
    12     4     5   ar
    13     5     6   ar
    14     6     8    1
    15     8     9    2
    16     8    10   am
    17    10    12    1
    18    12    13   ar
    19    13    14   ar
    20    14    15   ar
    21    15    16    1
    22    15    17   ar
    23    17    18   ar
    24     6     7   ar
    25     7     2   ar
    26    26    20   ar
    27    18    12   ar
    28    10    11    1
@<TRIPOS>MOLECULE
*****
 26 28 0 0 0
SMALL
GASTEIGER

@<TRIPOS>ATOM
      1 C          59.0940   90.7796   11.3603 C.3     1  UNL1        0.0522
      2 C          60.4130   90.0740   11.4722 C.ar    1  UNL1        0.0625
      3 C          61.6801   90.8674   11.5940 C.ar    1  UNL1        0.0522
      4 C          62.9990   90.1618   11.7060 C.ar    1  UNL1        0.1482
      5 C          63.0508   88.6628   11.6960 C.ar    1  UNL1        0.0612
      6 C          61.7837   87.8694   11.5741 C.ar    1  UNL1        0.1374
      7 N          60.4648   88.5750   11.4622 N.ar    1  UNL1       -0.2449
      8 C          61.8355   86.3702   11.5642 C.2     1  UNL1        0.2684
      9 O          61.1696   85.6041   10.4599 O.2     1  UNL1       -0.2681
     10 N          62.5533   85.6373   12.6585 N.am    1  UNL1       -0.2646
     11 H          62.9904   86.1401   13.3833 H       1  UNL1        0.1566
     12 C          62.6051   84.1382   12.6486 C.ar    1  UNL1        0.1345
     13 C          63.0554   83.4115   11.4161 C.ar    1  UNL1        0.0354
     14 C          63.1072   81.9124   11.4062 C.ar    1  UNL1        0.0158
     15 C          62.7086   81.1401   12.6288 C.ar    1  UNL1        0.0769
     16 CL         62.7604   79.6410   12.6188 Cl      1  UNL1       -0.0806
     17 C          62.2583   81.8668   13.8612 C.ar    1  UNL1        0.1116
     18 N          62.2066   83.3659   13.8711 N.ar    1  UNL1       -0.2281
     19 O          64.2661   90.9553   11.8278 O.3     1  UNL1       -0.4518
     20 C          64.7230   91.4370   13.1729 C.ar    1  UNL1        0.1666
     21 C          64.0103   90.9851   14.4131 C.ar    1  UNL1        0.1364
     22 N          64.4672   91.4667   15.7582 N.ar    1  UNL1       -0.2368
     23 C          65.6366   92.4003   15.8631 C.ar    1  UNL1        0.1286
     24 C          66.3492   92.8521   14.6230 C.ar    1  UNL1        0.1623
     25 F          67.5186   93.7857   14.7279 F       1  UNL1       -0.2024
     26 C          65.8923   92.3705   13.2779 C.ar    1  UNL1        0.0703
@<TRIPOS>BOND
     1     1     2    1
     2     2     3   ar
     3     3     4   ar
     4     4    19    1
     5    19    20    1
     6    20    21   ar
     7    21    22   ar
     8    22    23   ar
     9    23    24   ar
    10    24    25    1
    11    24    26   ar
    12     4     5   ar
    13     5     6   ar
    14     6     8    1
    15     8     9    2
    16     8    10   am
    17    10    12    1
    18    12    13   ar
    19    13    14   ar
    20    14    15   ar
    21    15    16    1
    22    15    17   ar
    23    17    18   ar
    24     6     7   ar
    25     7     2   ar
    26    26    20   ar
    27    18    12   ar
    28    10    11    1
@<TRIPOS>MOLECULE
*****
 26 28 0 0 0
SMALL
GASTEIGER

@<TRIPOS>ATOM
      1 C          62.5715   87.1172   18.5744 C.3     1  UNL1        0.0522
      2 C          63.0847   87.2515   17.1713 C.ar    1  UNL1        0.0625
      3 C          63.4549   88.6023   16.6343 C.ar    1  UNL1        0.0522
      4 C          63.9681   88.7366   15.2312 C.ar    1  UNL1        0.1482
      5 C          64.1110   87.5203   14.3652 C.ar    1  UNL1        0.0612
      6 C          63.7407   86.1696   14.9022 C.ar    1  UNL1        0.1374
      7 N          63.2276   86.0352   16.3053 N.ar    1  UNL1       -0.2449
      8 C          63.8836   84.9532   14.0361 C.2     1  UNL1        0.2684
      9 O          65.2249   84.3019   13.8732 O.2     1  UNL1       -0.2681
     10 N          62.6851   84.3881   13.3331 N.am    1  UNL1       -0.2646
     11 H          61.8047   84.8156   13.4401 H       1  UNL1        0.1566
     12 C          62.8280   83.1717   12.4670 C.ar    1  UNL1        0.1345
     13 C          63.3875   83.2992   11.0812 C.ar    1  UNL1        0.0354
     14 C          63.5304   82.0828   10.2152 C.ar    1  UNL1        0.0158
     15 C          63.1137   80.7389   10.7351 C.ar    1  UNL1        0.0769
     16 CL         63.2565   79.5225    9.8690 Cl      1  UNL1       -0.0806
     17 C          62.5541   80.6114   12.1209 C.ar    1  UNL1        0.1116
     18 N          62.4112   81.8278   12.9869 N.ar    1  UNL1       -0.2281
     19 O          64.3384   90.0874   14.6942 O.3     1  UNL1       -0.4518
     20 C          63.9780   90.4594   13.2864 C.ar    1  UNL1        0.1666
     21 C          62.8196   89.7909   12.6072 C.ar    1  UNL1        0.1364
     22 N          62.4593   90.1628   11.1994 N.ar    1  UNL1       -0.2368
     23 C          63.2574   91.2032   10.4709 C.ar    1  UNL1        0.1286
     24 C          64.4158   91.8716   11.1501 C.ar    1  UNL1        0.1623
     25 F          65.2139   92.9121   10.4216 F       1  UNL1       -0.2024
     26 C          64.7761   91.4997   12.5579 C.ar    1  UNL1        0.0703
@<TRIPOS>BOND
     1     1     2    1
     2     2     3   ar
     3     3     4   ar
     4     4    19    1
     5    19    20    1
     6    20    21   ar
     7    21    22   ar
     8    22    23   ar
     9    23    24   ar
    10    24    25    1
    11    24    26   ar
    12     4     5   ar
    13     5     6   ar
    14     6     8    1
    15     8     9    2
    16     8    10   am
    17    10    12    1
    18    12    13   ar
    19    13    14   ar
    20    14    15   ar
    21    15    16    1
    22    15    17   ar
    23    17    18   ar
    24     6     7   ar
    25     7     2   ar
    26    26    20   ar
    27    18    12   ar
    28    10    11    1
@<TRIPOS>MOLECULE
*****
 26 28 0 0 0
SMALL
GASTEIGER

@<TRIPOS>ATOM
      1 C          60.8036   90.8787   10.5728 C.3     1  UNL1        0.0522
      2 C          61.9794   90.5030   11.4250 C.ar    1  UNL1        0.0625
      3 C          62.9868   91.5440   11.8142 C.ar    1  UNL1        0.0522
      4 C          64.1626   91.1682   12.6664 C.ar    1  UNL1        0.1482
      5 C          64.3310   89.7515   13.1295 C.ar    1  UNL1        0.0612
      6 C          63.3236   88.7105   12.7404 C.ar    1  UNL1        0.1374
      7 N          62.1478   89.0862   11.8881 N.ar    1  UNL1       -0.2449
      8 C          63.4920   87.2937   13.2034 C.2     1  UNL1        0.2684
      9 O          64.2626   87.0009   14.4566 O.2     1  UNL1       -0.2681
     10 N          62.8899   86.1698   12.4133 N.am    1  UNL1       -0.2646
     11 H          62.3842   86.3621   11.5908 H       1  UNL1        0.1566
     12 C          63.0583   84.7530   12.8764 C.ar    1  UNL1        0.1345
     13 C          63.8970   83.7982   12.0796 C.ar    1  UNL1        0.0354
     14 C          64.0653   82.3815   12.5427 C.ar    1  UNL1        0.0158
     15 C          63.3950   81.9196   13.8026 C.ar    1  UNL1        0.0769
     16 CL         63.5634   80.5028   14.2657 Cl      1  UNL1       -0.0806
     17 C          62.5564   82.8744   14.5994 C.ar    1  UNL1        0.1116
     18 N          62.3880   84.2911   14.1363 N.ar    1  UNL1       -0.2281
     19 O          65.1700   92.2093   13.0556 O.3     1  UNL1       -0.4518
     20 C          65.9704   92.9106   11.9984 C.ar    1  UNL1        0.1666
     21 C          66.0528   94.4083   11.9902 C.ar    1  UNL1        0.1364
     22 N          66.8532   95.1096   10.9330 N.ar    1  UNL1       -0.2368
     23 C          67.5711   94.3131    9.8840 C.ar    1  UNL1        0.1286
     24 C          67.4886   92.8154    9.8923 C.ar    1  UNL1        0.1623
     25 F          68.2066   92.0189    8.8433 F       1  UNL1       -0.2024
     26 C          66.6882   92.1142   10.9494 C.ar    1  UNL1        0.0703
@<TRIPOS>BOND
     1     1     2    1
     2     2     3   ar
     3     3     4   ar
     4     4    19    1
     5    19    20    1
     6    20    21   ar
     7    21    22   ar
     8    22    23   ar
     9    23    24   ar
    10    24    25    1
    11    24    26   ar
    12     4     5   ar
    13     5     6   ar
    14     6     8    1
    15     8     9    2
    16     8    10   am
    17    10    12    1
    18    12    13   ar
    19    13    14   ar
    20    14    15   ar
    21    15    16    1
    22    15    17   ar
    23    17    18   ar
    24     6     7   ar
    25     7     2   ar
    26    26    20   ar
    27    18    12   ar
    28    10    11    1
