@<TRIPOS>MOLECULE
*****
 37 40 0 0 0
SMALL
GASTEIGER

@<TRIPOS>ATOM
      1 N          63.0417   90.9840   11.7198 N.am    1  UNL1       -0.2438
      2 C          63.5513   91.6108   10.4559 C.3     1  UNL1        0.1009
      3 C          64.7489   92.5132   10.4962 C.3     1  UNL1        0.0662
      4 C          65.4368   92.7887   11.8003 C.3     1  UNL1        0.1600
      5 O          64.9273   92.1619   13.0642 O.3     1  UNL1       -0.4374
      6 C          63.7298   91.2595   13.0240 C.2     1  UNL1        0.4051
      7 O          63.2202   90.6327   14.2879 O.2     1  UNL1       -0.2262
      8 C          66.2880   93.6103   10.8781 C.ar    1  UNL1        0.0138
      9 C          66.2592   95.1075   10.9654 C.ar    1  UNL1       -0.0010
     10 C          67.1103   95.9291   10.0432 C.ar    1  UNL1       -0.0002
     11 C          67.9903   95.2535    9.0336 C.ar    1  UNL1       -0.0000
     12 C          68.0192   93.7564    8.9463 C.ar    1  UNL1       -0.0002
     13 C          67.1680   92.9347    9.8685 C.ar    1  UNL1       -0.0010
     14 C          61.8442   90.0817   11.6796 C.3     1  UNL1        0.1011
     15 C          60.4652   90.6681   11.6132 C.3     1  UNL1        0.0265
     16 C          62.3886   85.6154   11.7581 C.ar    1  UNL1        0.0002
     17 C          61.2984   86.2236   10.9264 C.ar    1  UNL1       -0.0003
     18 C          61.1170   87.7123   10.9003 C.ar    1  UNL1       -0.0027
     19 C          62.0256   88.5929   11.7057 C.ar    1  UNL1       -0.0042
     20 C          63.1158   87.9847   12.5374 C.ar    1  UNL1       -0.0027
     21 C          63.2973   86.4960   12.5635 C.ar    1  UNL1       -0.0003
     22 N          62.9329   81.1491   11.8365 N.ar    1  UNL1       -0.2992
     23 C          62.1458   81.8279   12.9180 C.ar    1  UNL1        0.0402
     24 C          61.5401   81.0178   14.0258 C.3     1  UNL1        0.0501
     25 C          61.9644   83.3166   12.8919 C.ar    1  UNL1        0.0130
     26 C          62.5700   84.1266   11.7842 C.ar    1  UNL1        0.0058
     27 C          63.3571   83.4479   10.7027 C.ar    1  UNL1        0.0608
     28 C          63.5386   81.9592   10.7288 C.ar    1  UNL1        0.2607
     29 O          64.3258   81.2804    9.6472 O.2     1  UNL1       -0.2670
     30 C          62.7734   78.8419   10.6528 C.3     1  UNL1        0.0266
     31 C          63.1144   79.6604   11.8627 C.3     1  UNL1        0.1088
     32 C          66.4204   93.3495   12.7842 C.3     1  UNL1        0.0714
     33 C          67.0638   92.4497   13.7974 C.3     1  UNL1        0.0922
     34 C          66.3597   93.1860   14.8984 C.3     1  UNL1        0.0294
     35 C          67.7679   91.7134   12.6964 C.3     1  UNL1        0.0294
     36 O          67.7071   91.5499   14.8105 O.3     1  UNL1       -0.3866
     37 H          67.4165   91.8049   15.7002 H       1  UNL1        0.2102
@<TRIPOS>BOND
     1    30    31    1
     2    31    22    1
     3    22    23   ar
     4    23    24    1
     5    23    25   ar
     6    25    26   ar
     7    26    16    1
     8    16    17   ar
     9    17    18   ar
    10    18    19   ar
    11    19    14    1
    12    14    15    1
    13    14     1    1
    14     1     2    1
    15     2     3    1
    16     3     4    1
    17     4    32    1
    18    32    33    1
    19    33    34    1
    20    33    35    1
    21    33    36    1
    22     4     8    1
    23     8     9   ar
    24     9    10   ar
    25    10    11   ar
    26    11    12   ar
    27    12    13   ar
    28     4     5    1
    29     5     6    1
    30     6     7    2
    31    19    20   ar
    32    20    21   ar
    33    26    27   ar
    34    27    28   ar
    35    28    29    2
    36    28    22   ar
    37    21    16   ar
    38     6     1   am
    39    13     8   ar
    40    36    37    1
@<TRIPOS>MOLECULE
*****
 37 40 0 0 0
SMALL
GASTEIGER

@<TRIPOS>ATOM
      1 N          63.0829   91.1619   11.4317 N.am    1  UNL1       -0.2438
      2 C          63.5850   91.8914   10.2211 C.3     1  UNL1        0.1009
      3 C          64.7647   92.8109   10.3351 C.3     1  UNL1        0.0662
      4 C          65.4422   93.0008   11.6598 C.3     1  UNL1        0.1600
      5 O          64.9401   92.2713   12.8705 O.3     1  UNL1       -0.4374
      6 C          63.7605   91.3519   12.7565 C.2     1  UNL1        0.4051
      7 O          63.2584   90.6224   13.9672 O.2     1  UNL1       -0.2262
      8 C          66.2807   93.9053   10.8062 C.ar    1  UNL1        0.0138
      9 C          67.1325   93.3291    9.7143 C.ar    1  UNL1       -0.0010
     10 C          67.9710   94.2337    8.8607 C.ar    1  UNL1       -0.0002
     11 C          67.9578   95.7145    9.0991 C.ar    1  UNL1       -0.0000
     12 C          67.1061   96.2909   10.1910 C.ar    1  UNL1       -0.0002
     13 C          66.2675   95.3863   11.0446 C.ar    1  UNL1       -0.0010
     14 C          61.9032   90.2425   11.3178 C.3     1  UNL1        0.1011
     15 C          60.5532   90.7945   10.9677 C.3     1  UNL1        0.0265
     16 C          62.4144   85.8280   12.0260 C.ar    1  UNL1        0.0002
     17 C          63.3569   86.8043   12.6653 C.ar    1  UNL1       -0.0003
     18 C          63.1865   88.2758   12.4292 C.ar    1  UNL1       -0.0027
     19 C          62.0736   88.7710   11.5539 C.ar    1  UNL1       -0.0042
     20 C          61.1312   87.7947   10.9146 C.ar    1  UNL1       -0.0027
     21 C          61.3016   86.3233   11.1507 C.ar    1  UNL1       -0.0003
     22 N          62.9256   81.4136   12.7343 N.ar    1  UNL1       -0.2992
     23 C          63.0671   81.9724   11.3495 C.ar    1  UNL1        0.0402
     24 C          63.3790   81.0596   10.2007 C.3     1  UNL1        0.0501
     25 C          62.8967   83.4438   11.1134 C.ar    1  UNL1        0.0130
     26 C          62.5848   84.3566   12.2621 C.ar    1  UNL1        0.0058
     27 C          62.4433   83.7978   13.6470 C.ar    1  UNL1        0.0608
     28 C          62.6137   82.3264   13.8831 C.ar    1  UNL1        0.2607
     29 O          62.4723   81.7677   15.2680 O.2     1  UNL1       -0.2670
     30 C          61.9271   79.1134   13.4139 C.3     1  UNL1        0.0266
     31 C          63.0960   79.9422   12.9704 C.3     1  UNL1        0.1088
     32 C          66.4110   93.5049   12.6881 C.3     1  UNL1        0.0714
     33 C          67.0623   92.5450   13.6391 C.3     1  UNL1        0.0922
     34 C          66.4683   93.2898   14.7977 C.3     1  UNL1        0.0294
     35 C          67.6563   91.8001   12.4804 C.3     1  UNL1        0.0294
     36 O          67.7136   91.5850   14.5901 O.3     1  UNL1       -0.3866
     37 H          67.4919   91.8322   15.5015 H       1  UNL1        0.2102
@<TRIPOS>BOND
     1    30    31    1
     2    31    22    1
     3    22    23   ar
     4    23    24    1
     5    23    25   ar
     6    25    26   ar
     7    26    16    1
     8    16    17   ar
     9    17    18   ar
    10    18    19   ar
    11    19    14    1
    12    14    15    1
    13    14     1    1
    14     1     2    1
    15     2     3    1
    16     3     4    1
    17     4    32    1
    18    32    33    1
    19    33    34    1
    20    33    35    1
    21    33    36    1
    22     4     8    1
    23     8     9   ar
    24     9    10   ar
    25    10    11   ar
    26    11    12   ar
    27    12    13   ar
    28     4     5    1
    29     5     6    1
    30     6     7    2
    31    19    20   ar
    32    20    21   ar
    33    26    27   ar
    34    27    28   ar
    35    28    29    2
    36    28    22   ar
    37    21    16   ar
    38     6     1   am
    39    13     8   ar
    40    36    37    1
@<TRIPOS>MOLECULE
*****
 37 40 0 0 0
SMALL
GASTEIGER

@<TRIPOS>ATOM
      1 N          63.4996   90.6518   12.0383 N.am    1  UNL1       -0.2438
      2 C          64.1931   90.5118   13.3610 C.3     1  UNL1        0.1009
      3 C          65.4129   91.3325   13.6588 C.3     1  UNL1        0.0662
      4 C          65.9392   92.2930   12.6340 C.3     1  UNL1        0.1600
      5 O          65.2457   92.4330   11.3113 O.3     1  UNL1       -0.4374
      6 C          64.0259   91.6124   11.0135 C.2     1  UNL1        0.4051
      7 O          63.3324   91.7524    9.6908 O.2     1  UNL1       -0.2262
      8 C          66.9357   92.5132   13.7333 C.ar    1  UNL1        0.0138
      9 C          66.5354   93.2626   14.9694 C.ar    1  UNL1       -0.0010
     10 C          67.5318   93.4827   16.0688 C.ar    1  UNL1       -0.0002
     11 C          68.9287   92.9535   15.9320 C.ar    1  UNL1       -0.0000
     12 C          69.3291   92.2041   14.6959 C.ar    1  UNL1       -0.0002
     13 C          68.3326   91.9839   13.5965 C.ar    1  UNL1       -0.0010
     14 C          62.2798   89.8312   11.7405 C.3     1  UNL1        0.1011
     15 C          60.9822   90.5084   11.4123 C.3     1  UNL1        0.0265
     16 C          62.5132   85.3382   11.8315 C.ar    1  UNL1        0.0002
     17 C          61.5840   86.0217   10.8727 C.ar    1  UNL1       -0.0003
     18 C          61.5062   87.5194   10.8424 C.ar    1  UNL1       -0.0027
     19 C          62.3576   88.3336   11.7708 C.ar    1  UNL1       -0.0042
     20 C          63.2868   87.6501   12.7297 C.ar    1  UNL1       -0.0027
     21 C          63.3646   86.1524   12.7600 C.ar    1  UNL1       -0.0003
     22 N          62.7466   80.8452   11.9226 N.ar    1  UNL1       -0.2992
     23 C          62.1128   81.5865   13.0621 C.ar    1  UNL1        0.0402
     24 C          61.5567   80.8302   14.2321 C.3     1  UNL1        0.0501
     25 C          62.0350   83.0842   13.0318 C.ar    1  UNL1        0.0130
     26 C          62.5910   83.8406   11.8619 C.ar    1  UNL1        0.0058
     27 C          63.2248   83.0992   10.7223 C.ar    1  UNL1        0.0608
     28 C          63.3026   81.6015   10.7527 C.ar    1  UNL1        0.2607
     29 O          63.9365   80.8602    9.6130 O.2     1  UNL1       -0.2670
     30 C          62.6527   78.5618   10.6868 C.3     1  UNL1        0.0266
     31 C          62.8244   79.3475   11.9529 C.3     1  UNL1        0.1088
     32 C          66.8116   93.3301   11.9909 C.3     1  UNL1        0.0714
     33 C          66.6135   93.6862   10.5473 C.3     1  UNL1        0.0922
     34 C          67.4459   92.5060   10.1419 C.3     1  UNL1        0.0294
     35 C          65.7812   94.8665   10.9527 C.3     1  UNL1        0.0294
     36 O          66.4155   94.0424    9.1037 O.3     1  UNL1       -0.3866
     37 H          66.8803   93.3997    8.5453 H       1  UNL1        0.2102
@<TRIPOS>BOND
     1    30    31    1
     2    31    22    1
     3    22    23   ar
     4    23    24    1
     5    23    25   ar
     6    25    26   ar
     7    26    16    1
     8    16    17   ar
     9    17    18   ar
    10    18    19   ar
    11    19    14    1
    12    14    15    1
    13    14     1    1
    14     1     2    1
    15     2     3    1
    16     3     4    1
    17     4    32    1
    18    32    33    1
    19    33    34    1
    20    33    35    1
    21    33    36    1
    22     4     8    1
    23     8     9   ar
    24     9    10   ar
    25    10    11   ar
    26    11    12   ar
    27    12    13   ar
    28     4     5    1
    29     5     6    1
    30     6     7    2
    31    19    20   ar
    32    20    21   ar
    33    26    27   ar
    34    27    28   ar
    35    28    29    2
    36    28    22   ar
    37    21    16   ar
    38     6     1   am
    39    13     8   ar
    40    36    37    1
@<TRIPOS>MOLECULE
*****
 37 40 0 0 0
SMALL
GASTEIGER

@<TRIPOS>ATOM
      1 N          63.5158   90.6442   11.9685 N.am    1  UNL1       -0.2438
      2 C          64.2150   90.4842   13.2859 C.3     1  UNL1        0.1009
      3 C          65.4214   91.3183   13.6008 C.3     1  UNL1        0.0662
      4 C          65.9285   92.3122   12.5984 C.3     1  UNL1        0.1600
      5 O          65.2292   92.4722   11.2810 O.3     1  UNL1       -0.4374
      6 C          64.0229   91.6383   10.9661 C.2     1  UNL1        0.4051
      7 O          63.3236   91.7983    9.6487 O.2     1  UNL1       -0.2262
      8 C          66.9239   92.5228   13.7005 C.ar    1  UNL1        0.0138
      9 C          68.3237   92.0036   13.5563 C.ar    1  UNL1       -0.0010
     10 C          69.3191   92.2142   14.6584 C.ar    1  UNL1       -0.0002
     11 C          68.9147   92.9441   15.9049 C.ar    1  UNL1       -0.0000
     12 C          67.5149   93.4633   16.0493 C.ar    1  UNL1       -0.0002
     13 C          66.5194   93.2527   14.9471 C.ar    1  UNL1       -0.0010
     14 C          62.3095   89.8103   11.6536 C.3     1  UNL1        0.1011
     15 C          61.0269   90.4714   11.2436 C.3     1  UNL1        0.0265
     16 C          62.5380   85.3251   11.9385 C.ar    1  UNL1        0.0002
     17 C          63.3800   86.1778   12.8406 C.ar    1  UNL1       -0.0003
     18 C          63.3038   87.6729   12.7457 C.ar    1  UNL1       -0.0027
     19 C          62.3856   88.3152   11.7485 C.ar    1  UNL1       -0.0042
     20 C          61.5437   87.4625   10.8464 C.ar    1  UNL1       -0.0027
     21 C          61.6199   85.9675   10.9413 C.ar    1  UNL1       -0.0003
     22 N          62.7666   80.8400   12.2234 N.ar    1  UNL1       -0.2992
     23 C          63.1155   81.5285   10.9373 C.ar    1  UNL1        0.0402
     24 C          63.5406   80.7220    9.7460 C.3     1  UNL1        0.0501
     25 C          63.0393   83.0236   10.8423 C.ar    1  UNL1        0.0130
     26 C          62.6142   83.8301   12.0334 C.ar    1  UNL1        0.0058
     27 C          62.2653   83.1415   13.3195 C.ar    1  UNL1        0.0608
     28 C          62.3415   81.6465   13.4145 C.ar    1  UNL1        0.2607
     29 O          61.9926   80.9579   14.7007 O.2     1  UNL1       -0.2670
     30 C          62.4597   78.4981   11.1410 C.3     1  UNL1        0.0266
     31 C          62.8428   79.3449   12.3183 C.3     1  UNL1        0.1088
     32 C          66.7813   93.3794   11.9787 C.3     1  UNL1        0.0714
     33 C          66.5928   93.7468   10.5366 C.3     1  UNL1        0.0922
     34 C          65.7516   94.9196   10.9454 C.3     1  UNL1        0.0294
     35 C          67.4340   92.5740   10.1279 C.3     1  UNL1        0.0294
     36 O          66.4044   94.1142    9.0946 O.3     1  UNL1       -0.3866
     37 H          65.8509   94.9084    9.0329 H       1  UNL1        0.2102
@<TRIPOS>BOND
     1    30    31    1
     2    31    22    1
     3    22    23   ar
     4    23    24    1
     5    23    25   ar
     6    25    26   ar
     7    26    16    1
     8    16    17   ar
     9    17    18   ar
    10    18    19   ar
    11    19    14    1
    12    14    15    1
    13    14     1    1
    14     1     2    1
    15     2     3    1
    16     3     4    1
    17     4    32    1
    18    32    33    1
    19    33    34    1
    20    33    35    1
    21    33    36    1
    22     4     8    1
    23     8     9   ar
    24     9    10   ar
    25    10    11   ar
    26    11    12   ar
    27    12    13   ar
    28     4     5    1
    29     5     6    1
    30     6     7    2
    31    19    20   ar
    32    20    21   ar
    33    26    27   ar
    34    27    28   ar
    35    28    29    2
    36    28    22   ar
    37    21    16   ar
    38     6     1   am
    39    13     8   ar
    40    36    37    1
@<TRIPOS>MOLECULE
*****
 37 40 0 0 0
SMALL
GASTEIGER

@<TRIPOS>ATOM
      1 N          63.7009   87.2490   14.9130 N.am    1  UNL1       -0.2438
      2 C          63.7639   86.9168   13.4516 C.3     1  UNL1        0.1009
      3 C          63.7287   85.4850   13.0058 C.3     1  UNL1        0.0662
      4 C          63.6305   84.3855   14.0213 C.3     1  UNL1        0.1600
      5 O          63.5675   84.7176   15.4827 O.3     1  UNL1       -0.4374
      6 C          63.6027   86.1494   15.9286 C.2     1  UNL1        0.4051
      7 O          63.5398   86.4815   17.3900 O.2     1  UNL1       -0.2262
      8 C          63.6633   83.5735   12.7605 C.ar    1  UNL1        0.0138
      9 C          64.7751   82.5938   12.5280 C.ar    1  UNL1       -0.0010
     10 C          64.8079   81.7819   11.2673 C.ar    1  UNL1       -0.0002
     11 C          63.7289   81.9496   10.2389 C.ar    1  UNL1       -0.0000
     12 C          62.6171   82.9292   10.4712 C.ar    1  UNL1       -0.0002
     13 C          62.5842   83.7412   11.7321 C.ar    1  UNL1       -0.0010
     14 C          63.7362   88.6807   15.3589 C.3     1  UNL1        0.1011
     15 C          63.2103   89.0579   16.7121 C.3     1  UNL1        0.0265
     16 C          65.4195   91.8443   12.6371 C.ar    1  UNL1        0.0002
     17 C          64.1187   91.1785   12.2988 C.ar    1  UNL1       -0.0003
     18 C          63.5576   90.1240   13.2060 C.ar    1  UNL1       -0.0027
     19 C          64.2973   89.7353   14.4517 C.ar    1  UNL1       -0.0042
     20 C          65.5981   90.4010   14.7900 C.ar    1  UNL1       -0.0027
     21 C          66.1592   91.4556   13.8828 C.ar    1  UNL1       -0.0003
     22 N          67.1029   95.0079    9.9153 N.ar    1  UNL1       -0.2992
     23 C          66.3500   95.4044   11.1506 C.ar    1  UNL1        0.0402
     24 C          66.1583   96.8555   11.4787 C.3     1  UNL1        0.0501
     25 C          65.7889   94.3499   12.0579 C.ar    1  UNL1        0.0130
     26 C          65.9806   92.8988   11.7299 C.ar    1  UNL1        0.0058
     27 C          66.7335   92.5023   10.4946 C.ar    1  UNL1        0.0608
     28 C          67.2946   93.5568    9.5873 C.ar    1  UNL1        0.2607
     29 O          68.0475   93.1602    8.3520 O.2     1  UNL1       -0.2670
     30 C          66.8118   96.6476    7.9213 C.3     1  UNL1        0.0266
     31 C          67.6640   96.0624    9.0081 C.3     1  UNL1        0.1088
     32 C          63.5437   83.0039   14.5989 C.3     1  UNL1        0.0714
     33 C          62.2348   82.2711   14.5971 C.3     1  UNL1        0.0922
     34 C          61.5292   83.5303   15.0053 C.3     1  UNL1        0.0294
     35 C          62.9404   81.0119   14.1889 C.3     1  UNL1        0.0294
     36 O          60.9260   81.5383   14.5952 O.3     1  UNL1       -0.3866
     37 H          60.2137   82.1480   14.8437 H       1  UNL1        0.2102
@<TRIPOS>BOND
     1    30    31    1
     2    31    22    1
     3    22    23   ar
     4    23    24    1
     5    23    25   ar
     6    25    26   ar
     7    26    16    1
     8    16    17   ar
     9    17    18   ar
    10    18    19   ar
    11    19    14    1
    12    14    15    1
    13    14     1    1
    14     1     2    1
    15     2     3    1
    16     3     4    1
    17     4    32    1
    18    32    33    1
    19    33    34    1
    20    33    35    1
    21    33    36    1
    22     4     8    1
    23     8     9   ar
    24     9    10   ar
    25    10    11   ar
    26    11    12   ar
    27    12    13   ar
    28     4     5    1
    29     5     6    1
    30     6     7    2
    31    19    20   ar
    32    20    21   ar
    33    26    27   ar
    34    27    28   ar
    35    28    29    2
    36    28    22   ar
    37    21    16   ar
    38     6     1   am
    39    13     8   ar
    40    36    37    1
@<TRIPOS>MOLECULE
*****
 37 40 0 0 0
SMALL
GASTEIGER

@<TRIPOS>ATOM
      1 N          63.7061   87.2155   14.9396 N.am    1  UNL1       -0.2438
      2 C          63.7560   86.9007   13.4738 C.3     1  UNL1        0.1009
      3 C          63.7197   85.4741   13.0114 C.3     1  UNL1        0.0662
      4 C          63.6334   84.3625   14.0148 C.3     1  UNL1        0.1600
      5 O          63.5835   84.6773   15.4805 O.3     1  UNL1       -0.4374
      6 C          63.6198   86.1038   15.9429 C.2     1  UNL1        0.4051
      7 O          63.5699   86.4186   17.4087 O.2     1  UNL1       -0.2262
      8 C          63.6562   83.5655   12.7443 C.ar    1  UNL1        0.0138
      9 C          62.6719   83.8656   11.6529 C.ar    1  UNL1       -0.0010
     10 C          62.6946   83.0686   10.3824 C.ar    1  UNL1       -0.0002
     11 C          63.7017   81.9715   10.2032 C.ar    1  UNL1       -0.0000
     12 C          64.6860   81.6713   11.2945 C.ar    1  UNL1       -0.0002
     13 C          64.6633   82.4683   12.5651 C.ar    1  UNL1       -0.0010
     14 C          63.7424   88.6420   15.4020 C.3     1  UNL1        0.1011
     15 C          63.2102   89.0050   16.7565 C.3     1  UNL1        0.0265
     16 C          65.4479   91.8322   12.7254 C.ar    1  UNL1        0.0002
     17 C          66.1356   91.4868   14.0129 C.ar    1  UNL1       -0.0003
     18 C          65.5671   90.4234   14.9051 C.ar    1  UNL1       -0.0027
     19 C          64.3109   89.7054   14.5098 C.ar    1  UNL1       -0.0042
     20 C          63.6232   90.0507   13.2223 C.ar    1  UNL1       -0.0027
     21 C          64.1917   91.1141   12.3301 C.ar    1  UNL1       -0.0003
     22 N          67.1534   95.0224   10.0489 N.ar    1  UNL1       -0.2992
     23 C          67.4021   93.5751    9.7432 C.ar    1  UNL1        0.0402
     24 C          68.2193   93.1911    8.5454 C.3     1  UNL1        0.0501
     25 C          66.8336   92.5117   10.6354 C.ar    1  UNL1        0.0130
     26 C          66.0164   92.8956   11.8332 C.ar    1  UNL1        0.0058
     27 C          65.7677   94.3429   12.1389 C.ar    1  UNL1        0.0608
     28 C          66.3362   95.4063   11.2467 C.ar    1  UNL1        0.2607
     29 O          66.0875   96.8536   11.5524 O.2     1  UNL1       -0.2670
     30 C          66.8701   96.7010    8.0863 C.3     1  UNL1        0.0266
     31 C          67.7219   96.0858    9.1567 C.3     1  UNL1        0.1088
     32 C          63.5551   82.9740   14.5769 C.3     1  UNL1        0.0714
     33 C          62.2388   82.2560   14.6210 C.3     1  UNL1        0.0922
     34 C          61.5521   83.5375   14.9902 C.3     1  UNL1        0.0294
     35 C          62.9256   80.9745   14.2519 C.3     1  UNL1        0.0294
     36 O          60.9226   81.5379   14.6651 O.3     1  UNL1       -0.3866
     37 H          60.2202   82.1644   14.8997 H       1  UNL1        0.2102
@<TRIPOS>BOND
     1    30    31    1
     2    31    22    1
     3    22    23   ar
     4    23    24    1
     5    23    25   ar
     6    25    26   ar
     7    26    16    1
     8    16    17   ar
     9    17    18   ar
    10    18    19   ar
    11    19    14    1
    12    14    15    1
    13    14     1    1
    14     1     2    1
    15     2     3    1
    16     3     4    1
    17     4    32    1
    18    32    33    1
    19    33    34    1
    20    33    35    1
    21    33    36    1
    22     4     8    1
    23     8     9   ar
    24     9    10   ar
    25    10    11   ar
    26    11    12   ar
    27    12    13   ar
    28     4     5    1
    29     5     6    1
    30     6     7    2
    31    19    20   ar
    32    20    21   ar
    33    26    27   ar
    34    27    28   ar
    35    28    29    2
    36    28    22   ar
    37    21    16   ar
    38     6     1   am
    39    13     8   ar
    40    36    37    1
