@<TRIPOS>MOLECULE
*****
 35 40 0 0 0
SMALL
GASTEIGER

@<TRIPOS>ATOM
      1 C          64.3260   89.8312   13.9674 C.ar    1  UNL1        0.0251
      2 C          64.6159   88.4831   14.5580 C.ar    1  UNL1        0.0233
      3 C          63.8300   87.4620   13.7901 C.ar    1  UNL1        0.0918
      4 N          63.7204   85.9720   13.9232 N.ar    1  UNL1       -0.2262
      5 C          62.8351   85.1989   12.9911 C.ar    1  UNL1        0.1625
      6 N          62.0596   85.9158   11.9260 N.ar    1  UNL1       -0.2116
      7 C          62.1692   87.4059   11.7929 C.ar    1  UNL1        0.1409
      8 C          63.0544   88.1790   12.7250 C.ar    1  UNL1        0.0785
      9 S          63.3610   89.6432   12.8346 S.2     1  UNL1       -0.0856
     10 C          62.7255   83.7088   13.1241 C.2     1  UNL1        0.0504
     11 C          62.2028   83.1056   14.3942 C.2     1  UNL1        0.1398
     12 F          61.7897   83.9926   15.5311 F       1  UNL1       -0.2044
     13 C          62.0932   81.6156   14.5272 C.2     1  UNL1        0.0307
     14 C          62.5063   80.7287   13.3902 C.2     1  UNL1        0.0176
     15 C          63.0290   81.3318   12.1202 C.2     1  UNL1        0.0671
     16 N          63.5090   80.7155   10.8396 N.2     1  UNL1       -0.2478
     17 C          63.9152   81.8246    9.9151 C.2     1  UNL1        0.0946
     18 C          63.6863   83.1265   10.6244 C.2     1  UNL1        0.0047
     19 C          63.1386   82.8218   11.9871 C.3     1  UNL1        0.0911
     20 N          61.3936   88.1228   10.7278 N.pl3   1  UNL1       -0.2876
     21 C          61.1432   87.4581    9.4065 C.3     1  UNL1        0.1243
     22 C          60.3677   88.1750    8.3414 C.3     1  UNL1        0.1636
     23 O          59.8425   89.5566    8.5974 O.3     1  UNL1       -0.3501
     24 C          60.0929   90.2212    9.9186 C.3     1  UNL1        0.1636
     25 C          60.8685   89.5043   10.9839 C.3     1  UNL1        0.1243
     26 C          64.9004   91.1378   14.4287 C.3     1  UNL1        0.1057
     27 C          66.2875   94.1758   11.4126 C.3     1  UNL1        0.0604
     28 C          65.4559   93.0075   10.9724 C.3     1  UNL1        0.0333
     29 C          64.9936   91.9949   11.9779 C.3     1  UNL1        0.0738
     30 N          65.3628   92.1505   13.4234 N.3     1  UNL1       -0.2685
     31 C          66.1944   93.3188   13.8635 C.3     1  UNL1        0.0738
     32 C          66.6567   94.3313   12.8581 C.3     1  UNL1        0.0333
     33 C          67.5218   94.7474    9.1991 C.3     1  UNL1        0.0896
     34 N          66.7499   95.1884   10.4072 N.3     1  UNL1       -0.2715
     35 C          66.4404   96.6421   10.6101 C.3     1  UNL1        0.0896
@<TRIPOS>BOND
     1    33    34    1
     2    34    35    1
     3    34    27    1
     4    27    28    1
     5    28    29    1
     6    29    30    1
     7    30    26    1
     8    26     1    1
     9     1     2   ar
    10     2     3   ar
    11     3     4   ar
    12     4     5   ar
    13     5    10    1
    14    10    11    2
    15    11    12    1
    16    11    13    1
    17    13    14    2
    18    14    15    1
    19    15    16    2
    20    16    17    1
    21    17    18    2
    22    18    19    1
    23     5     6   ar
    24     6     7   ar
    25     7    20    1
    26    20    21    1
    27    21    22    1
    28    22    23    1
    29    23    24    1
    30    24    25    1
    31     7     8   ar
    32     8     9   ar
    33    30    31    1
    34    31    32    1
    35    32    27    1
    36     9     1   ar
    37     8     3   ar
    38    19    10    1
    39    25    20    1
    40    19    15    1
@<TRIPOS>MOLECULE
*****
 35 40 0 0 0
SMALL
GASTEIGER

@<TRIPOS>ATOM
      1 C          63.3917   89.5405   12.9283 C.ar    1  UNL1        0.0251
      2 C          63.9044   88.2190   13.4191 C.ar    1  UNL1        0.0233
      3 C          63.3184   87.1438   12.5527 C.ar    1  UNL1        0.0918
      4 N          63.4685   85.6514   12.5657 N.ar    1  UNL1       -0.2262
      5 C          62.7436   84.8160   11.5524 C.ar    1  UNL1        0.1625
      6 N          61.8688   85.4729   10.5263 N.ar    1  UNL1       -0.2116
      7 C          61.7188   86.9653   10.5133 C.ar    1  UNL1        0.1409
      8 C          62.4436   87.8008   11.5265 C.ar    1  UNL1        0.0785
      9 S          62.4889   89.2820   11.7587 S.2     1  UNL1       -0.0856
     10 C          62.8936   83.3235   11.5653 C.2     1  UNL1        0.0504
     11 C          63.3976   82.6097   10.3461 C.2     1  UNL1        0.1398
     12 F          63.7515   83.3885    9.1139 F       1  UNL1       -0.2044
     13 C          63.5476   81.1173   10.3591 C.2     1  UNL1        0.0307
     14 C          63.1936   80.3386   11.5913 C.2     1  UNL1        0.0176
     15 C          62.6896   81.0524   12.8106 C.2     1  UNL1        0.0671
     16 N          62.2649   80.5555   14.1607 N.2     1  UNL1       -0.2478
     17 C          61.8524   81.7408   14.9821 C.2     1  UNL1        0.0946
     18 C          62.0222   82.9703   14.1396 C.2     1  UNL1        0.0047
     19 C          62.5396   82.5448   12.7976 C.3     1  UNL1        0.0911
     20 N          60.8439   87.6223    9.4871 N.pl3   1  UNL1       -0.2876
     21 C          60.8651   89.1137    9.3275 C.3     1  UNL1        0.1243
     22 C          59.9904   89.7706    8.3013 C.3     1  UNL1        0.1636
     23 O          59.0943   88.9363    7.4347 O.3     1  UNL1       -0.3501
     24 C          59.0731   87.4450    7.5943 C.3     1  UNL1        0.1636
     25 C          59.9479   86.7879    8.6205 C.3     1  UNL1        0.1243
     26 C          63.7236   90.8845   13.5058 C.3     1  UNL1        0.1057
     27 C          66.2235   93.7910   11.1493 C.3     1  UNL1        0.0604
     28 C          66.4027   93.6798   12.6344 C.3     1  UNL1        0.0333
     29 C          65.5693   92.7109   13.4199 C.3     1  UNL1        0.0738
     30 N          64.5569   91.8533   12.7203 N.3     1  UNL1       -0.2685
     31 C          64.3777   91.9646   11.2352 C.3     1  UNL1        0.0738
     32 C          65.2110   92.9334   10.4497 C.3     1  UNL1        0.0333
     33 C          68.0722   94.2526    9.3833 C.3     1  UNL1        0.0896
     34 N          67.0567   94.7598   10.3638 N.3     1  UNL1       -0.2715
     35 C          66.8745   96.2359   10.5589 C.3     1  UNL1        0.0896
@<TRIPOS>BOND
     1    33    34    1
     2    34    35    1
     3    34    27    1
     4    27    28    1
     5    28    29    1
     6    29    30    1
     7    30    26    1
     8    26     1    1
     9     1     2   ar
    10     2     3   ar
    11     3     4   ar
    12     4     5   ar
    13     5    10    1
    14    10    11    2
    15    11    12    1
    16    11    13    1
    17    13    14    2
    18    14    15    1
    19    15    16    2
    20    16    17    1
    21    17    18    2
    22    18    19    1
    23     5     6   ar
    24     6     7   ar
    25     7    20    1
    26    20    21    1
    27    21    22    1
    28    22    23    1
    29    23    24    1
    30    24    25    1
    31     7     8   ar
    32     8     9   ar
    33    30    31    1
    34    31    32    1
    35    32    27    1
    36     9     1   ar
    37     8     3   ar
    38    19    10    1
    39    25    20    1
    40    19    15    1
@<TRIPOS>MOLECULE
*****
 35 40 0 0 0
SMALL
GASTEIGER

@<TRIPOS>ATOM
      1 C          63.4398   90.1402   12.2949 C.ar    1  UNL1        0.0251
      2 C          63.8684   89.0038   13.1752 C.ar    1  UNL1        0.0233
      3 C          63.2177   87.7520   12.6658 C.ar    1  UNL1        0.0918
      4 N          63.2743   86.3287   13.1358 N.ar    1  UNL1       -0.2262
      5 C          62.5002   85.2680   12.4105 C.ar    1  UNL1        0.1625
      6 N          61.6696   85.6308   11.2154 N.ar    1  UNL1       -0.2116
      7 C          61.6130   87.0541   10.7454 C.ar    1  UNL1        0.1409
      8 C          62.3870   88.1147   11.4706 C.ar    1  UNL1        0.0785
      9 S          62.5243   89.5907   11.2414 S.2     1  UNL1       -0.0856
     10 C          62.5568   83.8446   12.8805 C.2     1  UNL1        0.0504
     11 C          62.2120   83.5097   14.3014 C.2     1  UNL1        0.1398
     12 F          61.8106   84.5982   15.2523 F       1  UNL1       -0.2044
     13 C          62.2686   82.0864   14.7714 C.2     1  UNL1        0.0307
     14 C          62.6699   80.9980   13.8205 C.2     1  UNL1        0.0176
     15 C          63.0147   81.3329   12.3996 C.2     1  UNL1        0.0671
     16 N          63.4419   80.4792   11.2425 N.2     1  UNL1       -0.2478
     17 C          63.6493   81.3750   10.0573 C.2     1  UNL1        0.0946
     18 C          63.3503   82.7823   10.4820 C.2     1  UNL1        0.0047
     19 C          62.9581   82.7562   11.9296 C.3     1  UNL1        0.0911
     20 N          60.7823   87.4168    9.5502 N.pl3   1  UNL1       -0.2876
     21 C          60.1658   86.3378    8.7099 C.3     1  UNL1        0.1243
     22 C          59.3352   86.7005    7.5148 C.3     1  UNL1        0.1636
     23 O          59.1210   88.1421    7.1597 O.3     1  UNL1       -0.3501
     24 C          59.7375   89.2210    7.9999 C.3     1  UNL1        0.1636
     25 C          60.5682   88.8583    9.1952 C.3     1  UNL1        0.1243
     26 C          63.8541   91.5743   12.4422 C.3     1  UNL1        0.1057
     27 C          67.3742   92.6448   15.0331 C.3     1  UNL1        0.0604
     28 C          67.5020   92.6878   13.5392 C.3     1  UNL1        0.0333
     29 C          66.3285   92.3309   12.6756 C.3     1  UNL1        0.0738
     30 N          65.0274   91.9311   13.3059 N.3     1  UNL1       -0.2685
     31 C          64.8997   91.8882   14.7999 C.3     1  UNL1        0.0738
     32 C          66.0731   92.2451   15.6634 C.3     1  UNL1        0.0333
     33 C          69.0268   94.4215   15.9616 C.3     1  UNL1        0.0896
     34 N          68.5476   93.0016   15.8968 N.3     1  UNL1       -0.2715
     35 C          69.2417   91.9386   16.6956 C.3     1  UNL1        0.0896
@<TRIPOS>BOND
     1    33    34    1
     2    34    35    1
     3    34    27    1
     4    27    28    1
     5    28    29    1
     6    29    30    1
     7    30    26    1
     8    26     1    1
     9     1     2   ar
    10     2     3   ar
    11     3     4   ar
    12     4     5   ar
    13     5    10    1
    14    10    11    2
    15    11    12    1
    16    11    13    1
    17    13    14    2
    18    14    15    1
    19    15    16    2
    20    16    17    1
    21    17    18    2
    22    18    19    1
    23     5     6   ar
    24     6     7   ar
    25     7    20    1
    26    20    21    1
    27    21    22    1
    28    22    23    1
    29    23    24    1
    30    24    25    1
    31     7     8   ar
    32     8     9   ar
    33    30    31    1
    34    31    32    1
    35    32    27    1
    36     9     1   ar
    37     8     3   ar
    38    19    10    1
    39    25    20    1
    40    19    15    1
@<TRIPOS>MOLECULE
*****
 35 40 0 0 0
SMALL
GASTEIGER

@<TRIPOS>ATOM
      1 C          63.0389   89.9483   12.4892 C.ar    1  UNL1        0.0251
      2 C          63.6194   88.6961   13.0765 C.ar    1  UNL1        0.0233
      3 C          63.1012   87.5305   12.2873 C.ar    1  UNL1        0.0918
      4 N          63.3331   86.0536   12.4087 N.ar    1  UNL1       -0.2262
      5 C          62.6643   85.1085   11.4549 C.ar    1  UNL1        0.1625
      6 N          61.7636   85.6403   10.3799 N.ar    1  UNL1       -0.2116
      7 C          61.5317   87.1173   10.2585 C.ar    1  UNL1        0.1409
      8 C          62.2004   88.0624   11.2122 C.ar    1  UNL1        0.0785
      9 S          62.1619   89.5567   11.3370 S.2     1  UNL1       -0.0856
     10 C          62.8963   83.6314   11.5763 C.2     1  UNL1        0.0504
     11 C          63.3842   82.8491   10.3931 C.2     1  UNL1        0.1398
     12 F          63.6401   83.5439    9.0885 F       1  UNL1       -0.2044
     13 C          63.6161   81.3722   10.5145 C.2     1  UNL1        0.0307
     14 C          63.3602   80.6775   11.8191 C.2     1  UNL1        0.0176
     15 C          62.8723   81.4598   13.0023 C.2     1  UNL1        0.0671
     16 N          62.5356   81.0515   14.4058 N.2     1  UNL1       -0.2478
     17 C          62.0955   82.2761   15.1519 C.2     1  UNL1        0.0946
     18 C          62.1603   83.4413   14.2094 C.2     1  UNL1        0.0047
     19 C          62.6404   82.9368   12.8809 C.3     1  UNL1        0.0911
     20 N          60.6309   87.6492    9.1834 N.pl3   1  UNL1       -0.2876
     21 C          59.7577   86.7107    8.4042 C.3     1  UNL1        0.1243
     22 C          58.8570   87.2425    7.3292 C.3     1  UNL1        0.1636
     23 O          58.8294   88.7128    7.0332 O.3     1  UNL1       -0.3501
     24 C          59.7025   89.6512    7.8123 C.3     1  UNL1        0.1636
     25 C          60.6033   89.1194    8.8874 C.3     1  UNL1        0.1243
     26 C          63.2911   91.3467   12.9697 C.3     1  UNL1        0.1057
     27 C          67.4027   92.5435   14.3527 C.3     1  UNL1        0.0604
     28 C          66.9934   92.7757   12.9284 C.3     1  UNL1        0.0333
     29 C          65.6228   92.3767   12.4675 C.3     1  UNL1        0.0738
     30 N          64.6616   91.7456   13.4307 N.3     1  UNL1       -0.2685
     31 C          65.0710   91.5135   14.8550 C.3     1  UNL1        0.0738
     32 C          66.4415   91.9125   15.3160 C.3     1  UNL1        0.0333
     33 C          69.9864   92.3556   14.1552 C.3     1  UNL1        0.0896
     34 N          68.7732   92.9425   14.8137 N.3     1  UNL1       -0.2715
     35 C          68.9305   93.9283   15.9333 C.3     1  UNL1        0.0896
@<TRIPOS>BOND
     1    33    34    1
     2    34    35    1
     3    34    27    1
     4    27    28    1
     5    28    29    1
     6    29    30    1
     7    30    26    1
     8    26     1    1
     9     1     2   ar
    10     2     3   ar
    11     3     4   ar
    12     4     5   ar
    13     5    10    1
    14    10    11    2
    15    11    12    1
    16    11    13    1
    17    13    14    2
    18    14    15    1
    19    15    16    2
    20    16    17    1
    21    17    18    2
    22    18    19    1
    23     5     6   ar
    24     6     7   ar
    25     7    20    1
    26    20    21    1
    27    21    22    1
    28    22    23    1
    29    23    24    1
    30    24    25    1
    31     7     8   ar
    32     8     9   ar
    33    30    31    1
    34    31    32    1
    35    32    27    1
    36     9     1   ar
    37     8     3   ar
    38    19    10    1
    39    25    20    1
    40    19    15    1
@<TRIPOS>MOLECULE
*****
 35 40 0 0 0
SMALL
GASTEIGER

@<TRIPOS>ATOM
      1 C          59.5716   88.6689    8.0045 C.ar    1  UNL1        0.0251
      2 C          59.6927   87.1783    8.1206 C.ar    1  UNL1        0.0233
      3 C          60.7342   86.8773    9.1573 C.ar    1  UNL1        0.0918
      4 N          61.2742   85.5838    9.6914 N.ar    1  UNL1       -0.2262
      5 C          62.3368   85.5949   10.7502 C.ar    1  UNL1        0.1625
      6 N          62.8592   86.8994   11.2747 N.ar    1  UNL1       -0.2116
      7 C          62.3192   88.1929   10.7407 C.ar    1  UNL1        0.1409
      8 C          61.2567   88.1818    9.6819 C.ar    1  UNL1        0.0785
      9 S          60.5382   89.2891    8.9695 S.2     1  UNL1       -0.0856
     10 C          62.8769   84.3014   11.2843 C.2     1  UNL1        0.0504
     11 C          63.5208   83.3164   10.3542 C.2     1  UNL1        0.1398
     12 F          63.6248   83.6250    8.8899 F       1  UNL1       -0.2044
     13 C          64.0609   82.0230   10.8883 C.2     1  UNL1        0.0307
     14 C          63.9569   81.7144   12.3525 C.2     1  UNL1        0.0176
     15 C          63.3129   82.6994   13.2827 C.2     1  UNL1        0.0671
     16 N          63.0691   82.6711   14.7625 N.2     1  UNL1       -0.2478
     17 C          62.3784   83.9470   15.1429 C.2     1  UNL1        0.0946
     18 C          62.1953   84.7640   13.8982 C.2     1  UNL1        0.0047
     19 C          62.7729   83.9929   12.7486 C.3     1  UNL1        0.0911
     20 N          62.8417   89.4974   11.2653 N.pl3   1  UNL1       -0.2876
     21 C          62.9998   89.7023   12.7429 C.3     1  UNL1        0.1243
     22 C          63.5222   91.0067   13.2675 C.3     1  UNL1        0.1636
     23 O          63.8868   92.1064   12.3146 O.3     1  UNL1       -0.3501
     24 C          63.7288   91.9015   10.8371 C.3     1  UNL1        0.1636
     25 C          63.2063   90.5970   10.3124 C.3     1  UNL1        0.1243
     26 C          58.6464   89.4093    7.0849 C.3     1  UNL1        0.1057
     27 C          60.3257   92.0512    3.8521 C.3     1  UNL1        0.0604
     28 C          58.8748   92.1469    4.2206 C.3     1  UNL1        0.0333
     29 C          58.3151   91.2662    5.2983 C.3     1  UNL1        0.0738
     30 N          59.2062   90.2899    6.0073 N.3     1  UNL1       -0.2685
     31 C          60.6571   90.1942    5.6387 C.3     1  UNL1        0.0738
     32 C          61.2168   91.0749    4.5612 C.3     1  UNL1        0.0333
     33 C          62.2371   92.6392    2.1937 C.3     1  UNL1        0.0896
     34 N          60.8855   92.9318    2.7746 N.3     1  UNL1       -0.2715
     35 C          60.0936   94.1049    2.2779 C.3     1  UNL1        0.0896
@<TRIPOS>BOND
     1    33    34    1
     2    34    35    1
     3    34    27    1
     4    27    28    1
     5    28    29    1
     6    29    30    1
     7    30    26    1
     8    26     1    1
     9     1     2   ar
    10     2     3   ar
    11     3     4   ar
    12     4     5   ar
    13     5    10    1
    14    10    11    2
    15    11    12    1
    16    11    13    1
    17    13    14    2
    18    14    15    1
    19    15    16    2
    20    16    17    1
    21    17    18    2
    22    18    19    1
    23     5     6   ar
    24     6     7   ar
    25     7    20    1
    26    20    21    1
    27    21    22    1
    28    22    23    1
    29    23    24    1
    30    24    25    1
    31     7     8   ar
    32     8     9   ar
    33    30    31    1
    34    31    32    1
    35    32    27    1
    36     9     1   ar
    37     8     3   ar
    38    19    10    1
    39    25    20    1
    40    19    15    1
@<TRIPOS>MOLECULE
*****
 35 40 0 0 0
SMALL
GASTEIGER

@<TRIPOS>ATOM
      1 C          60.0736   89.0101    8.4760 C.ar    1  UNL1        0.0251
      2 C          60.5110   90.2346    9.2239 C.ar    1  UNL1        0.0233
      3 C          61.4531   89.8034   10.3085 C.ar    1  UNL1        0.0918
      4 N          62.1978   90.5758   11.3568 N.ar    1  UNL1       -0.2262
      5 C          63.0874   89.8572   12.3275 C.ar    1  UNL1        0.1625
      6 N          63.2323   88.3663   12.2499 N.ar    1  UNL1       -0.2116
      7 C          62.4877   87.5939   11.2016 C.ar    1  UNL1        0.1409
      8 C          61.5981   88.3125   10.2310 C.ar    1  UNL1        0.0785
      9 S          60.7455   87.8222    9.0984 S.2     1  UNL1       -0.0856
     10 C          63.8321   90.6296   13.3758 C.2     1  UNL1        0.0504
     11 C          63.5771   90.3596   14.8291 C.2     1  UNL1        0.1398
     12 F          62.5775   89.3171   15.2341 F       1  UNL1       -0.2044
     13 C          64.3218   91.1320   15.8773 C.2     1  UNL1        0.0307
     14 C          65.3214   92.1744   15.4723 C.2     1  UNL1        0.0176
     15 C          65.5764   92.4445   14.0190 C.2     1  UNL1        0.0671
     16 N          66.4954   93.4039   13.3226 N.2     1  UNL1       -0.2478
     17 C          66.3188   93.2244   11.8439 C.2     1  UNL1        0.0946
     18 C          65.2905   92.1541   11.6265 C.2     1  UNL1        0.0047
     19 C          64.8317   91.6721   12.9708 C.3     1  UNL1        0.0911
     20 N          62.6327   86.1029   11.1241 N.pl3   1  UNL1       -0.2876
     21 C          62.5154   85.2722   12.3676 C.3     1  UNL1        0.1243
     22 C          62.6603   83.7814   12.2901 C.3     1  UNL1        0.1636
     23 O          62.9226   83.1210   10.9690 O.3     1  UNL1       -0.3501
     24 C          63.0399   83.9516    9.7255 C.3     1  UNL1        0.1636
     25 C          62.8949   85.4426    9.8030 C.3     1  UNL1        0.1243
     26 C          59.1301   88.9790    7.3104 C.3     1  UNL1        0.1057
     27 C          59.5163   92.0257    4.0211 C.3     1  UNL1        0.0604
     28 C          60.7279   91.2837    4.5021 C.3     1  UNL1        0.0333
     29 C          60.5991   90.2681    5.5986 C.3     1  UNL1        0.0738
     30 N          59.2588   89.9946    6.2140 N.3     1  UNL1       -0.2685
     31 C          58.0472   90.7367    5.7329 C.3     1  UNL1        0.0738
     32 C          58.1760   91.7521    4.6365 C.3     1  UNL1        0.0333
     33 C          60.0957   94.4359    3.2434 C.3     1  UNL1        0.0896
     34 N          59.6450   93.0412    2.9247 N.3     1  UNL1       -0.2715
     35 C          59.3230   92.6620    1.5096 C.3     1  UNL1        0.0896
@<TRIPOS>BOND
     1    33    34    1
     2    34    35    1
     3    34    27    1
     4    27    28    1
     5    28    29    1
     6    29    30    1
     7    30    26    1
     8    26     1    1
     9     1     2   ar
    10     2     3   ar
    11     3     4   ar
    12     4     5   ar
    13     5    10    1
    14    10    11    2
    15    11    12    1
    16    11    13    1
    17    13    14    2
    18    14    15    1
    19    15    16    2
    20    16    17    1
    21    17    18    2
    22    18    19    1
    23     5     6   ar
    24     6     7   ar
    25     7    20    1
    26    20    21    1
    27    21    22    1
    28    22    23    1
    29    23    24    1
    30    24    25    1
    31     7     8   ar
    32     8     9   ar
    33    30    31    1
    34    31    32    1
    35    32    27    1
    36     9     1   ar
    37     8     3   ar
    38    19    10    1
    39    25    20    1
    40    19    15    1
@<TRIPOS>MOLECULE
*****
 35 40 0 0 0
SMALL
GASTEIGER

@<TRIPOS>ATOM
      1 C          60.0517   89.0562    8.3549 C.ar    1  UNL1        0.0251
      2 C          60.5078   90.2765    9.0985 C.ar    1  UNL1        0.0233
      3 C          61.4590   89.8366   10.1717 C.ar    1  UNL1        0.0918
      4 N          62.2222   90.6020   11.2117 N.ar    1  UNL1       -0.2262
      5 C          63.1172   89.8753   12.1714 C.ar    1  UNL1        0.1625
      6 N          63.2490   88.3833   12.0910 N.ar    1  UNL1       -0.2116
      7 C          62.4858   87.6179   11.0510 C.ar    1  UNL1        0.1409
      8 C          61.5908   88.3446   10.0913 C.ar    1  UNL1        0.0785
      9 S          60.7210   87.8623    8.9684 S.2     1  UNL1       -0.0856
     10 C          63.8804   90.6407   13.2115 C.2     1  UNL1        0.0504
     11 C          64.9065   91.6527   12.7955 C.2     1  UNL1        0.1398
     12 F          65.1694   91.8992   11.3394 F       1  UNL1       -0.2044
     13 C          65.6697   92.4181   13.8356 C.2     1  UNL1        0.0307
     14 C          65.4068   92.1715   15.2916 C.2     1  UNL1        0.0176
     15 C          64.3807   91.1595   15.7076 C.2     1  UNL1        0.0671
     16 N          63.9088   90.7049   17.0570 N.2     1  UNL1       -0.2478
     17 C          62.8539   89.6586   16.8509 C.2     1  UNL1        0.0946
     18 C          62.6739   89.4665   15.3741 C.2     1  UNL1        0.0047
     19 C          63.6175   90.3941   14.6676 C.3     1  UNL1        0.0911
     20 N          62.6176   86.1259   10.9706 N.pl3   1  UNL1       -0.2876
     21 C          62.9179   85.4692    9.6558 C.3     1  UNL1        0.1243
     22 C          63.0497   83.9773    9.5754 C.3     1  UNL1        0.1636
     23 O          62.8812   83.1418   10.8098 O.3     1  UNL1       -0.3501
     24 C          62.5809   83.7985   12.1245 C.3     1  UNL1        0.1636
     25 C          62.4491   85.2905   12.2050 C.3     1  UNL1        0.1243
     26 C          59.0944   89.0339    7.2003 C.3     1  UNL1        0.1057
     27 C          59.4780   92.0689    3.9000 C.3     1  UNL1        0.0604
     28 C          58.1370   91.7926    4.5127 C.3     1  UNL1        0.0333
     29 C          58.0092   90.7809    5.6128 C.3     1  UNL1        0.0738
     30 N          59.2223   90.0455    6.1002 N.3     1  UNL1       -0.2685
     31 C          60.5633   90.3218    5.4874 C.3     1  UNL1        0.0738
     32 C          60.6911   91.3334    4.3874 C.3     1  UNL1        0.0333
     33 C          60.1718   94.4386    3.0920 C.3     1  UNL1        0.0896
     34 N          59.6059   93.0805    2.7999 N.3     1  UNL1       -0.2715
     35 C          59.1679   92.7340    1.4077 C.3     1  UNL1        0.0896
@<TRIPOS>BOND
     1    33    34    1
     2    34    35    1
     3    34    27    1
     4    27    28    1
     5    28    29    1
     6    29    30    1
     7    30    26    1
     8    26     1    1
     9     1     2   ar
    10     2     3   ar
    11     3     4   ar
    12     4     5   ar
    13     5    10    1
    14    10    11    2
    15    11    12    1
    16    11    13    1
    17    13    14    2
    18    14    15    1
    19    15    16    2
    20    16    17    1
    21    17    18    2
    22    18    19    1
    23     5     6   ar
    24     6     7   ar
    25     7    20    1
    26    20    21    1
    27    21    22    1
    28    22    23    1
    29    23    24    1
    30    24    25    1
    31     7     8   ar
    32     8     9   ar
    33    30    31    1
    34    31    32    1
    35    32    27    1
    36     9     1   ar
    37     8     3   ar
    38    19    10    1
    39    25    20    1
    40    19    15    1
