@<TRIPOS>MOLECULE
*****
 50 56 0 0 0
SMALL
GASTEIGER

@<TRIPOS>ATOM
      1 C          59.9697   88.9608    8.6034 C.3     1  UNL1        0.1543
      2 N          60.3289   89.7680    7.3912 N.am    1  UNL1       -0.2822
      3 C          59.2502   90.2696    6.4775 C.2     1  UNL1        0.3043
      4 O          57.8124   89.9641    6.7760 O.2     1  UNL1       -0.2526
      5 N          59.6094   91.0768    5.2653 N.am    1  UNL1       -0.2641
      6 C          58.5307   91.5784    4.3517 C.3     1  UNL1        0.0966
      7 C          58.8900   92.3856    3.1394 C.3     1  UNL1        0.0415
      8 C          60.3278   92.6912    2.8409 C.3     1  UNL1        0.0806
      9 C          61.4065   92.1896    3.7546 C.3     1  UNL1        0.0415
     10 C          61.0473   91.3824    4.9668 C.3     1  UNL1        0.0966
     11 H          61.2726   89.9686    7.1953 H       1  UNL1        0.1514
     12 N          60.6870   93.4984    1.6288 N.am    1  UNL1       -0.2613
     13 C          61.2506   92.8196    0.4157 C.3     1  UNL1        0.1228
     14 C          61.6098   93.6269   -0.7965 C.ar    1  UNL1        0.0112
     15 C          62.1735   92.9481   -2.0096 C.ar    1  UNL1       -0.0014
     16 C          62.5326   93.7553   -3.2218 C.ar    1  UNL1       -0.0002
     17 C          62.3282   95.2413   -3.2209 C.ar    1  UNL1        0.0013
     18 C          61.7645   95.9201   -2.0078 C.ar    1  UNL1        0.0144
     19 C          61.4053   95.1128   -0.7956 C.ar    1  UNL1        0.0492
     20 N          60.8417   95.7916    0.4174 N.am    1  UNL1       -0.2684
     21 C          60.4825   94.9844    1.6296 C.2     1  UNL1        0.3079
     22 O          59.9188   95.6632    2.8427 O.2     1  UNL1       -0.2522
     23 H          60.7075   96.7669    0.4180 H       1  UNL1        0.1564
     24 C          59.9254   89.6137    9.9531 C.2     1  UNL1        0.2439
     25 O          58.6112   89.8064   10.6502 O.2     1  UNL1       -0.2731
     26 N          61.1951   90.0740   10.6057 N.am    1  UNL1       -0.2781
     27 C          62.5092   89.8814    9.9085 C.3     1  UNL1        0.0948
     28 C          63.7790   90.3417   10.5611 C.3     1  UNL1        0.0375
     29 C          63.7346   90.9947   11.9108 C.3     1  UNL1        0.0609
     30 C          62.4204   91.1873   12.6080 C.3     1  UNL1        0.0375
     31 C          61.1507   90.7270   11.9554 C.3     1  UNL1        0.0948
     32 N          65.0043   91.4550   12.5634 N.3     1  UNL1       -0.2738
     33 C          65.3338   91.0123   13.9582 C.3     1  UNL1        0.0720
     34 C          66.6036   91.4726   14.6109 C.3     1  UNL1        0.0174
     35 C          67.5437   92.3756   13.8687 C.3     1  UNL1        0.0029
     36 C          67.2141   92.8182   12.4739 C.3     1  UNL1        0.0174
     37 C          65.9444   92.3579   11.8213 C.3     1  UNL1        0.0720
     38 C          59.6549   87.5006    8.4659 C.3     1  UNL1        0.0553
     39 C          62.4263   84.8032    7.5750 C.2     1  UNL1       -0.0167
     40 C          61.3382   85.8234    7.4154 C.2     1  UNL1       -0.0105
     41 C          60.7430   86.4806    8.6253 C.2     1  UNL1       -0.0208
     42 C          61.2360   86.1176    9.9948 C.2     1  UNL1       -0.0050
     43 C          62.3240   85.0975   10.1543 C.2     1  UNL1        0.0204
     44 C          63.0083   84.5412   11.3677 C.2     1  UNL1        0.0787
     45 C          62.7243   84.9195   12.7912 C.3     1  UNL1        0.0537
     46 N          64.0263   83.5402   10.9078 N.2     1  UNL1       -0.1567
     47 N          63.9713   83.4779    9.4101 N.2     1  UNL1       -0.1681
     48 C          62.9192   84.4404    8.9444 C.3     1  UNL1        0.1668
     49 C          62.2743   84.1519    5.0645 C.3     1  UNL1        0.0047
     50 C          63.0215   84.1461    6.3651 C.3     1  UNL1        0.0243
@<TRIPOS>BOND
     1    49    50    1
     2    50    39    1
     3    39    40    2
     4    40    41    1
     5    41    38    1
     6    38     1    1
     7     1     2    1
     8     2     3   am
     9     3     4    2
    10     3     5   am
    11     5     6    1
    12     6     7    1
    13     7     8    1
    14     8    12    1
    15    12    13    1
    16    13    14    1
    17    14    15   ar
    18    15    16   ar
    19    16    17   ar
    20    17    18   ar
    21    18    19   ar
    22    19    20    1
    23    20    21   am
    24    21    22    2
    25     8     9    1
    26     9    10    1
    27     1    24    1
    28    24    25    2
    29    24    26   am
    30    26    27    1
    31    27    28    1
    32    28    29    1
    33    29    32    1
    34    32    33    1
    35    33    34    1
    36    34    35    1
    37    35    36    1
    38    36    37    1
    39    29    30    1
    40    30    31    1
    41    41    42    2
    42    42    43    1
    43    43    44    2
    44    44    45    1
    45    44    46    1
    46    46    47    2
    47    47    48    1
    48    48    39    1
    49    10     5    1
    50    31    26    1
    51    48    43    1
    52    21    12   am
    53    37    32    1
    54    19    14   ar
    55     2    11    1
    56    20    23    1
@<TRIPOS>MOLECULE
*****
 50 56 0 0 0
SMALL
GASTEIGER

@<TRIPOS>ATOM
      1 C          60.8594   87.9562    9.1166 C.3     1  UNL1        0.1543
      2 N          60.8967   88.8694    7.9273 N.am    1  UNL1       -0.2822
      3 C          59.6177   89.3072    7.2774 C.2     1  UNL1        0.3043
      4 O          58.3013   88.8319    7.8170 O.2     1  UNL1       -0.2526
      5 N          59.6550   90.2204    6.0881 N.am    1  UNL1       -0.2641
      6 C          58.3759   90.6583    5.4383 C.3     1  UNL1        0.0966
      7 C          58.4133   91.5715    4.2488 C.3     1  UNL1        0.0415
      8 C          59.7297   92.0469    3.7093 C.3     1  UNL1        0.0806
      9 C          61.0087   91.6090    4.3591 C.3     1  UNL1        0.0415
     10 C          60.9714   90.6958    5.5485 C.3     1  UNL1        0.0966
     11 H          61.7607   89.1814    7.5731 H       1  UNL1        0.1514
     12 N          59.7670   92.9601    2.5199 N.am    1  UNL1       -0.2613
     13 C          59.7664   92.3867    1.1338 C.3     1  UNL1        0.1228
     14 C          59.8037   93.3000   -0.0556 C.ar    1  UNL1        0.0112
     15 C          59.8031   92.7267   -1.4417 C.ar    1  UNL1       -0.0014
     16 C          59.8405   93.6399   -2.6311 C.ar    1  UNL1       -0.0002
     17 C          59.8784   95.1265   -2.4344 C.ar    1  UNL1        0.0013
     18 C          59.8790   95.6998   -1.0482 C.ar    1  UNL1        0.0144
     19 C          59.8416   94.7865    0.1412 C.ar    1  UNL1        0.0492
     20 N          59.8422   95.3599    1.5273 N.am    1  UNL1       -0.2684
     21 C          59.8049   94.4467    2.7166 C.2     1  UNL1        0.3079
     22 O          59.8055   95.0200    4.1027 O.2     1  UNL1       -0.2522
     23 H          59.8671   96.3356    1.6564 H       1  UNL1        0.1564
     24 C          60.6081   88.5168   10.4851 C.2     1  UNL1        0.2439
     25 O          59.3121   88.2335   11.1852 O.2     1  UNL1       -0.2731
     26 N          61.6527   89.3606   11.1533 N.am    1  UNL1       -0.2781
     27 C          62.9486   89.6439   10.4531 C.3     1  UNL1        0.0948
     28 C          63.9934   90.4878   11.1214 C.3     1  UNL1        0.0375
     29 C          63.7420   91.0484   12.4898 C.3     1  UNL1        0.0609
     30 C          62.4460   90.7651   13.1900 C.3     1  UNL1        0.0375
     31 C          61.4014   89.9212   12.5217 C.3     1  UNL1        0.0948
     32 N          64.7867   91.8923   13.1581 N.3     1  UNL1       -0.2738
     33 C          65.1349   91.6543   14.5975 C.3     1  UNL1        0.0720
     34 C          66.1796   92.4982   15.2659 C.3     1  UNL1        0.0174
     35 C          66.8760   93.5800   14.4947 C.3     1  UNL1        0.0029
     36 C          66.5277   93.8179   13.0551 C.3     1  UNL1        0.0174
     37 C          65.4831   92.9741   12.3869 C.3     1  UNL1        0.0720
     38 C          61.0734   86.4823    8.9376 C.3     1  UNL1        0.0553
     39 C          63.3173   83.6042   10.4969 C.2     1  UNL1       -0.0167
     40 C          62.4388   84.3561    9.5413 C.2     1  UNL1       -0.0105
     41 C          61.9518   85.7305    9.8931 C.2     1  UNL1       -0.0208
     42 C          62.3432   86.3530   11.2006 C.2     1  UNL1       -0.0050
     43 C          63.2216   85.6012   12.1561 C.2     1  UNL1        0.0204
     44 C          63.7684   85.9549   13.5074 C.2     1  UNL1        0.0787
     45 C          63.5317   87.2390   14.2457 C.3     1  UNL1        0.0537
     46 N          64.5934   84.7992   13.9907 N.2     1  UNL1       -0.1567
     47 N          64.5564   83.7311   12.9381 N.2     1  UNL1       -0.1681
     48 C          63.7087   84.2268   11.8043 C.3     1  UNL1        0.1668
     49 C          63.1942   81.0270   10.8015 C.3     1  UNL1        0.0047
     50 C          63.8044   82.2298   10.1451 C.3     1  UNL1        0.0243
@<TRIPOS>BOND
     1    49    50    1
     2    50    39    1
     3    39    40    2
     4    40    41    1
     5    41    38    1
     6    38     1    1
     7     1     2    1
     8     2     3   am
     9     3     4    2
    10     3     5   am
    11     5     6    1
    12     6     7    1
    13     7     8    1
    14     8    12    1
    15    12    13    1
    16    13    14    1
    17    14    15   ar
    18    15    16   ar
    19    16    17   ar
    20    17    18   ar
    21    18    19   ar
    22    19    20    1
    23    20    21   am
    24    21    22    2
    25     8     9    1
    26     9    10    1
    27     1    24    1
    28    24    25    2
    29    24    26   am
    30    26    27    1
    31    27    28    1
    32    28    29    1
    33    29    32    1
    34    32    33    1
    35    33    34    1
    36    34    35    1
    37    35    36    1
    38    36    37    1
    39    29    30    1
    40    30    31    1
    41    41    42    2
    42    42    43    1
    43    43    44    2
    44    44    45    1
    45    44    46    1
    46    46    47    2
    47    47    48    1
    48    48    39    1
    49    10     5    1
    50    31    26    1
    51    48    43    1
    52    21    12   am
    53    37    32    1
    54    19    14   ar
    55     2    11    1
    56    20    23    1
@<TRIPOS>MOLECULE
*****
 50 56 0 0 0
SMALL
GASTEIGER

@<TRIPOS>ATOM
      1 C          60.9037   87.9193    9.2808 C.3     1  UNL1        0.1543
      2 N          61.0186   88.7716    8.0519 N.am    1  UNL1       -0.2822
      3 C          59.7811   89.2771    7.3713 C.2     1  UNL1        0.3043
      4 O          58.4288   88.9302    7.9197 O.2     1  UNL1       -0.2526
      5 N          59.8961   90.1294    6.1424 N.am    1  UNL1       -0.2641
      6 C          58.6586   90.6349    5.4618 C.3     1  UNL1        0.0966
      7 C          58.7736   91.4872    4.2329 C.3     1  UNL1        0.0415
      8 C          60.1259   91.8341    3.6845 C.3     1  UNL1        0.0806
      9 C          61.3634   91.3287    4.3651 C.3     1  UNL1        0.0415
     10 C          61.2485   90.4763    5.5940 C.3     1  UNL1        0.0966
     11 H          61.9062   88.9993    7.6920 H       1  UNL1        0.1514
     12 N          60.2408   92.6865    2.4556 N.am    1  UNL1       -0.2613
     13 C          59.0219   92.9875    1.6350 C.3     1  UNL1        0.1228
     14 C          59.1368   93.8398    0.4060 C.ar    1  UNL1        0.0112
     15 C          57.9178   94.1409   -0.4147 C.ar    1  UNL1       -0.0014
     16 C          58.0327   94.9932   -1.6436 C.ar    1  UNL1       -0.0002
     17 C          59.3667   95.5446   -2.0519 C.ar    1  UNL1        0.0013
     18 C          60.5857   95.2436   -1.2312 C.ar    1  UNL1        0.0144
     19 C          60.4707   94.3912   -0.0023 C.ar    1  UNL1        0.0492
     20 N          61.6897   94.0902    0.8184 N.am    1  UNL1       -0.2684
     21 C          61.5748   93.2378    2.0473 C.2     1  UNL1        0.3079
     22 O          62.7938   92.9368    2.8680 O.2     1  UNL1       -0.2522
     23 H          62.5652   94.4520    0.5504 H       1  UNL1        0.1564
     24 C          60.6362   88.5556   10.6126 C.2     1  UNL1        0.2439
     25 O          59.3203   88.3352   11.2983 O.2     1  UNL1       -0.2731
     26 N          61.6843   89.4122   11.2586 N.am    1  UNL1       -0.2781
     27 C          63.0001   89.6326   10.5729 C.3     1  UNL1        0.0948
     28 C          64.0483   90.4893   11.2190 C.3     1  UNL1        0.0375
     29 C          63.7808   91.1256   12.5507 C.3     1  UNL1        0.0609
     30 C          62.4650   90.9052   13.2364 C.3     1  UNL1        0.0375
     31 C          61.4168   90.0485   12.5904 C.3     1  UNL1        0.0948
     32 N          64.8290   91.9822   13.1967 N.3     1  UNL1       -0.2738
     33 C          65.5290   93.0413   12.3978 C.3     1  UNL1        0.0720
     34 C          66.5773   93.8980   13.0439 C.3     1  UNL1        0.0174
     35 C          66.9254   93.6956   14.4888 C.3     1  UNL1        0.0029
     36 C          66.2253   92.6365   15.2877 C.3     1  UNL1        0.0174
     37 C          65.1771   91.7798   14.6417 C.3     1  UNL1        0.0720
     38 C          61.0563   86.4306    9.1780 C.3     1  UNL1        0.0553
     39 C          63.0714   85.6337   12.5029 C.2     1  UNL1       -0.0167
     40 C          62.2835   86.3802   11.4675 C.2     1  UNL1       -0.0105
     41 C          61.8442   85.6842   10.2134 C.2     1  UNL1       -0.0208
     42 C          62.1928   84.2416    9.9949 C.2     1  UNL1       -0.0050
     43 C          62.9807   83.4952   11.0303 C.2     1  UNL1        0.0204
     44 C          63.4689   82.0782   11.0913 C.2     1  UNL1        0.0787
     45 C          63.2539   81.0258   10.0444 C.3     1  UNL1        0.0537
     46 N          64.2100   81.8985   12.3830 N.2     1  UNL1       -0.1567
     47 N          64.1797   83.2044   13.1203 N.2     1  UNL1       -0.1681
     48 C          63.4200   84.1913   12.2843 C.3     1  UNL1        0.1668
     49 C          64.0895   87.7116   13.6843 C.3     1  UNL1        0.0047
     50 C          63.5107   86.3297   13.7569 C.3     1  UNL1        0.0243
@<TRIPOS>BOND
     1    49    50    1
     2    50    39    1
     3    39    40    2
     4    40    41    1
     5    41    38    1
     6    38     1    1
     7     1     2    1
     8     2     3   am
     9     3     4    2
    10     3     5   am
    11     5     6    1
    12     6     7    1
    13     7     8    1
    14     8    12    1
    15    12    13    1
    16    13    14    1
    17    14    15   ar
    18    15    16   ar
    19    16    17   ar
    20    17    18   ar
    21    18    19   ar
    22    19    20    1
    23    20    21   am
    24    21    22    2
    25     8     9    1
    26     9    10    1
    27     1    24    1
    28    24    25    2
    29    24    26   am
    30    26    27    1
    31    27    28    1
    32    28    29    1
    33    29    32    1
    34    32    33    1
    35    33    34    1
    36    34    35    1
    37    35    36    1
    38    36    37    1
    39    29    30    1
    40    30    31    1
    41    41    42    2
    42    42    43    1
    43    43    44    2
    44    44    45    1
    45    44    46    1
    46    46    47    2
    47    47    48    1
    48    48    39    1
    49    10     5    1
    50    31    26    1
    51    48    43    1
    52    21    12   am
    53    37    32    1
    54    19    14   ar
    55     2    11    1
    56    20    23    1
@<TRIPOS>MOLECULE
*****
 50 56 0 0 0
SMALL
GASTEIGER

@<TRIPOS>ATOM
      1 C          59.3270   94.7206   -0.0329 C.3     1  UNL1        0.1543
      2 N          59.2732   93.9586    1.2579 N.am    1  UNL1       -0.2822
      3 C          60.4476   93.1316    1.6903 C.2     1  UNL1        0.3043
      4 O          61.6758   93.0666    0.8317 O.2     1  UNL1       -0.2526
      5 N          60.3937   92.3696    2.9812 N.am    1  UNL1       -0.2641
      6 C          61.5681   91.5427    3.4135 C.3     1  UNL1        0.0966
      7 C          61.5142   90.7807    4.7045 C.3     1  UNL1        0.0415
      8 C          60.2860   90.8457    5.5631 C.3     1  UNL1        0.0806
      9 C          59.1116   91.6727    5.1307 C.3     1  UNL1        0.0415
     10 C          59.1654   92.4346    3.8398 C.3     1  UNL1        0.0966
     11 H          58.4670   94.0012    1.8215 H       1  UNL1        0.1514
     12 N          60.2321   90.0837    6.8539 N.am    1  UNL1       -0.2613
     13 C          61.2457   90.3527    7.9265 C.3     1  UNL1        0.1228
     14 C          61.1918   89.5907    9.2174 C.ar    1  UNL1        0.0112
     15 C          62.2053   89.8597   10.2900 C.ar    1  UNL1       -0.0014
     16 C          62.1515   89.0977   11.5809 C.ar    1  UNL1       -0.0002
     17 C          61.0841   88.0667   11.7993 C.ar    1  UNL1        0.0013
     18 C          60.0705   87.7977   10.7267 C.ar    1  UNL1        0.0144
     19 C          60.1244   88.5597    9.4358 C.ar    1  UNL1        0.0492
     20 N          59.1109   88.2907    8.3632 N.am    1  UNL1       -0.2684
     21 C          59.1647   89.0527    7.0723 C.2     1  UNL1        0.3079
     22 O          58.1512   88.7837    5.9998 O.2     1  UNL1       -0.2522
     23 H          58.4103   87.6140    8.5066 H       1  UNL1        0.1564
     24 C          58.7800   94.1086   -1.2884 C.2     1  UNL1        0.2439
     25 O          59.5649   93.0558   -2.0134 O.2     1  UNL1       -0.2731
     26 N          57.4480   94.5495   -1.8190 N.am    1  UNL1       -0.2781
     27 C          56.6632   95.6023   -1.0941 C.3     1  UNL1        0.0948
     28 C          55.3312   96.0432   -1.6246 C.3     1  UNL1        0.0375
     29 C          54.7841   95.4313   -2.8801 C.3     1  UNL1        0.0609
     30 C          55.5691   94.3785   -3.6051 C.3     1  UNL1        0.0375
     31 C          56.9010   93.9376   -3.0745 C.3     1  UNL1        0.0948
     32 N          53.4522   95.8722   -3.4107 N.3     1  UNL1       -0.2738
     33 C          52.2693   95.9556   -2.4921 C.3     1  UNL1        0.0720
     34 C          50.9373   96.3965   -3.0227 C.3     1  UNL1        0.0174
     35 C          50.7882   96.7540   -4.4718 C.3     1  UNL1        0.0029
     36 C          51.9712   96.6705   -5.3904 C.3     1  UNL1        0.0174
     37 C          53.3031   96.2296   -4.8599 C.3     1  UNL1        0.0720
     38 C          59.9280   96.0945   -0.0684 C.3     1  UNL1        0.0553
     39 C          63.5936   96.6434    1.3500 C.2     1  UNL1       -0.0167
     40 C          62.1040   96.4748    1.2992 C.2     1  UNL1       -0.0105
     41 C          61.4176   96.2631   -0.0176 C.2     1  UNL1       -0.0208
     42 C          62.2208   96.2202   -1.2837 C.2     1  UNL1       -0.0050
     43 C          63.7104   96.3888   -1.2330 C.2     1  UNL1        0.0204
     44 C          64.7573   96.3924   -2.3072 C.2     1  UNL1        0.0787
     45 C          64.5136   96.2136   -3.7764 C.3     1  UNL1        0.0537
     46 N          66.0908   96.6062   -1.6543 N.2     1  UNL1       -0.1567
     47 N          65.8679   96.7348   -0.1765 N.2     1  UNL1       -0.1681
     48 C          64.3968   96.6004    0.0839 C.3     1  UNL1        0.1668
     49 C          65.3344   95.8921    3.1263 C.3     1  UNL1        0.0047
     50 C          64.2800   96.8550    2.6668 C.3     1  UNL1        0.0243
@<TRIPOS>BOND
     1    49    50    1
     2    50    39    1
     3    39    40    2
     4    40    41    1
     5    41    38    1
     6    38     1    1
     7     1     2    1
     8     2     3   am
     9     3     4    2
    10     3     5   am
    11     5     6    1
    12     6     7    1
    13     7     8    1
    14     8    12    1
    15    12    13    1
    16    13    14    1
    17    14    15   ar
    18    15    16   ar
    19    16    17   ar
    20    17    18   ar
    21    18    19   ar
    22    19    20    1
    23    20    21   am
    24    21    22    2
    25     8     9    1
    26     9    10    1
    27     1    24    1
    28    24    25    2
    29    24    26   am
    30    26    27    1
    31    27    28    1
    32    28    29    1
    33    29    32    1
    34    32    33    1
    35    33    34    1
    36    34    35    1
    37    35    36    1
    38    36    37    1
    39    29    30    1
    40    30    31    1
    41    41    42    2
    42    42    43    1
    43    43    44    2
    44    44    45    1
    45    44    46    1
    46    46    47    2
    47    47    48    1
    48    48    39    1
    49    10     5    1
    50    31    26    1
    51    48    43    1
    52    21    12   am
    53    37    32    1
    54    19    14   ar
    55     2    11    1
    56    20    23    1
