@<TRIPOS>MOLECULE
*****
 39 41 0 0 0
SMALL
GASTEIGER

@<TRIPOS>ATOM
      1 N          62.6375   88.9698   12.3793 N.pl3   1  UNL1       -0.1898
      2 C          63.2417   87.7726   13.0513 C.ar    1  UNL1        0.0793
      3 C          64.0632   87.9453   14.2944 C.ar    1  UNL1        0.0170
      4 C          64.6674   86.7481   14.9664 C.ar    1  UNL1        0.0014
      5 C          64.4501   85.3782   14.3953 C.ar    1  UNL1        0.0009
      6 C          63.6286   85.2055   13.1523 C.ar    1  UNL1        0.0118
      7 C          63.0244   86.4027   12.4803 C.ar    1  UNL1        0.0725
      8 CL         62.2029   86.2300   11.2371 Cl      1  UNL1       -0.0809
      9 C          63.4113   83.8356   12.5812 C.ar    1  UNL1        0.0008
     10 C          64.1717   83.4015   11.3633 C.ar    1  UNL1       -0.0000
     11 C          63.9544   82.0316   10.7922 C.ar    1  UNL1        0.0039
     12 C          62.9767   81.0958   11.4390 C.ar    1  UNL1        0.0714
     13 C          62.2164   81.5299   12.6569 C.ar    1  UNL1        0.0039
     14 C          62.4337   82.8998   13.2280 C.ar    1  UNL1       -0.0000
     15 C          62.7595   79.7259   10.8680 C.3     1  UNL1        0.4186
     16 F          62.5422   78.3560   10.2969 F       1  UNL1       -0.1659
     17 F          62.4683   79.1993   12.2420 F       1  UNL1       -0.1659
     18 F          63.0506   80.2525    9.4939 F       1  UNL1       -0.1659
     19 S          63.4621   90.2040   12.1624 S.O2    1  UNL1        0.0763
     20 O          63.8627   89.6983   10.8082 O.2     1  UNL1       -0.1497
     21 O          63.0614   90.7096   13.5166 O.2     1  UNL1       -0.1497
     22 C          64.2866   91.4381   11.9455 C.ar    1  UNL1        0.1213
     23 C          64.2112   92.1704   10.6387 C.ar    1  UNL1        0.0230
     24 C          65.0358   93.4045   10.4218 C.ar    1  UNL1        0.0379
     25 C          65.9358   93.9063   11.5118 C.ar    1  UNL1        0.1347
     26 C          66.0113   93.1739   12.8187 C.ar    1  UNL1        0.0095
     27 C          66.9114   93.6756   13.9087 C.3     1  UNL1        0.0339
     28 C          65.1867   91.9398   13.0356 C.ar    1  UNL1       -0.0040
     29 C          65.2622   91.2074   14.3424 C.3     1  UNL1        0.0322
     30 O          66.7604   95.1404   11.2949 O.3     1  UNL1       -0.4739
     31 C          67.2681   95.4716    9.9229 C.3     1  UNL1        0.2020
     32 C          67.0629   96.8463    9.3589 C.3     1  UNL1        0.0536
     33 C          67.9811   94.4281    9.1148 C.2     1  UNL1        0.0900
     34 O          67.6625   94.2601    7.6587 O.co2   1  UNL1       -0.5455
     35 O          69.0125   93.5528    9.7628 O.co2   1  UNL1       -0.5455
     36 C          61.2087   88.9329   11.9241 C.3     1  UNL1        0.1159
     37 C          60.6572   90.0531   11.0927 C.3     1  UNL1        0.0234
     38 C          60.4990   88.4855    9.0270 C.3     1  UNL1        0.0001
     39 C          60.1649   89.7827    9.7018 C.3     1  UNL1        0.0018
@<TRIPOS>UNITY_ATOM_ATTR
34 1
charge -1
@<TRIPOS>BOND
     1    38    39    1
     2    39    37    1
     3    37    36    1
     4    36     1    1
     5     1     2    1
     6     2     3   ar
     7     3     4   ar
     8     4     5   ar
     9     5     6   ar
    10     6     9    1
    11     9    10   ar
    12    10    11   ar
    13    11    12   ar
    14    12    15    1
    15    15    16    1
    16    15    17    1
    17    15    18    1
    18    12    13   ar
    19    13    14   ar
    20     6     7   ar
    21     7     8    1
    22     1    19    1
    23    19    20    2
    24    19    21    2
    25    19    22    1
    26    22    23   ar
    27    23    24   ar
    28    24    25   ar
    29    25    30    1
    30    30    31    1
    31    31    32    1
    32    31    33    1
    33    33    34   ar
    34    33    35   ar
    35    25    26   ar
    36    26    27    1
    37    26    28   ar
    38    28    29    1
    39     7     2   ar
    40    28    22   ar
    41    14     9   ar
@<TRIPOS>MOLECULE
*****
 39 41 0 0 0
SMALL
GASTEIGER

@<TRIPOS>ATOM
      1 N          64.3106   90.2330   14.9189 N.pl3   1  UNL1       -0.1898
      2 C          65.5256   91.0170   14.5197 C.ar    1  UNL1        0.0793
      3 C          66.7649   90.9607   15.3628 C.ar    1  UNL1        0.0170
      4 C          67.9798   91.7446   14.9636 C.ar    1  UNL1        0.0014
      5 C          67.9554   92.5848   13.7212 C.ar    1  UNL1        0.0009
      6 C          66.7160   92.6411   12.8781 C.ar    1  UNL1        0.0118
      7 C          65.5012   91.8572   13.2774 C.ar    1  UNL1        0.0725
      8 CL         64.2617   91.9134   12.4342 Cl      1  UNL1       -0.0809
      9 C          66.6916   93.4813   11.6357 C.ar    1  UNL1        0.0008
     10 C          67.3390   92.9805   10.3788 C.ar    1  UNL1       -0.0000
     11 C          67.3145   93.8207    9.1364 C.ar    1  UNL1        0.0039
     12 C          66.6427   95.1617    9.1510 C.ar    1  UNL1        0.0714
     13 C          65.9953   95.6625   10.4080 C.ar    1  UNL1        0.0039
     14 C          66.0198   94.8223   11.6504 C.ar    1  UNL1       -0.0000
     15 C          66.6183   96.0019    7.9087 C.3     1  UNL1        0.4186
     16 F          66.5938   96.8422    6.6663 F       1  UNL1       -0.1659
     17 F          65.1987   96.3900    8.1990 F       1  UNL1       -0.1659
     18 F          68.0378   95.6139    7.6183 F       1  UNL1       -0.1659
     19 S          63.9333   88.9959   14.1592 S.O2    1  UNL1        0.0763
     20 O          65.2495   88.3732   14.5195 O.2     1  UNL1       -0.1497
     21 O          62.6171   89.6186   13.7990 O.2     1  UNL1       -0.1497
     22 C          63.5560   87.7588   13.3995 C.ar    1  UNL1        0.1213
     23 C          63.8202   86.4058   13.9907 C.ar    1  UNL1        0.0230
     24 C          63.4428   85.1686   13.2309 C.ar    1  UNL1        0.0379
     25 C          62.8013   85.2845   11.8801 C.ar    1  UNL1        0.1347
     26 C          62.5370   86.6376   11.2888 C.ar    1  UNL1        0.0095
     27 C          61.8955   86.7535    9.9380 C.3     1  UNL1        0.0339
     28 C          62.9144   87.8747   12.0486 C.ar    1  UNL1       -0.0040
     29 C          62.6501   89.2277   11.4574 C.3     1  UNL1        0.0322
     30 O          62.4239   84.0474   11.1204 O.3     1  UNL1       -0.4739
     31 C          63.1915   82.7758   11.3291 C.3     1  UNL1        0.2020
     32 C          64.4584   82.5303   10.5643 C.3     1  UNL1        0.0536
     33 C          62.6923   81.7495   12.3025 C.2     1  UNL1        0.0900
     34 O          62.0928   82.1827   13.6075 O.co2   1  UNL1       -0.5455
     35 O          62.7925   80.2900   11.9710 O.co2   1  UNL1       -0.5455
     36 C          63.4731   90.6861   16.0778 C.3     1  UNL1        0.1159
     37 C          63.1282   89.7238   17.1757 C.3     1  UNL1        0.0234
     38 C          62.7227   87.2901   17.9893 C.3     1  UNL1        0.0001
     39 C          63.0614   88.2528   16.8901 C.3     1  UNL1        0.0018
@<TRIPOS>UNITY_ATOM_ATTR
34 1
charge -1
@<TRIPOS>BOND
     1    38    39    1
     2    39    37    1
     3    37    36    1
     4    36     1    1
     5     1     2    1
     6     2     3   ar
     7     3     4   ar
     8     4     5   ar
     9     5     6   ar
    10     6     9    1
    11     9    10   ar
    12    10    11   ar
    13    11    12   ar
    14    12    15    1
    15    15    16    1
    16    15    17    1
    17    15    18    1
    18    12    13   ar
    19    13    14   ar
    20     6     7   ar
    21     7     8    1
    22     1    19    1
    23    19    20    2
    24    19    21    2
    25    19    22    1
    26    22    23   ar
    27    23    24   ar
    28    24    25   ar
    29    25    30    1
    30    30    31    1
    31    31    32    1
    32    31    33    1
    33    33    34   ar
    34    33    35   ar
    35    25    26   ar
    36    26    27    1
    37    26    28   ar
    38    28    29    1
    39     7     2   ar
    40    28    22   ar
    41    14     9   ar
@<TRIPOS>MOLECULE
*****
 39 41 0 0 0
SMALL
GASTEIGER

@<TRIPOS>ATOM
      1 N          62.2660   89.0928   12.3854 N.pl3   1  UNL1       -0.1898
      2 C          63.2685   90.0840   12.8978 C.ar    1  UNL1        0.0793
      3 C          63.5915   90.1357   14.3617 C.ar    1  UNL1        0.0170
      4 C          64.5940   91.1269   14.8739 C.ar    1  UNL1        0.0014
      5 C          65.2734   92.0665   13.9224 C.ar    1  UNL1        0.0009
      6 C          64.9504   92.0149   12.4585 C.ar    1  UNL1        0.0118
      7 C          63.9479   91.0236   11.9462 C.ar    1  UNL1        0.0725
      8 CL         63.6249   90.9720   10.4823 Cl      1  UNL1       -0.0809
      9 C          65.6298   92.9545   11.5069 C.ar    1  UNL1        0.0008
     10 C          65.3799   94.4303   11.6034 C.ar    1  UNL1       -0.0000
     11 C          66.0593   95.3699   10.6519 C.ar    1  UNL1        0.0039
     12 C          66.9887   94.8337    9.6037 C.ar    1  UNL1        0.0714
     13 C          67.2387   93.3579    9.5072 C.ar    1  UNL1        0.0039
     14 C          66.5593   92.4183   10.4588 C.ar    1  UNL1       -0.0000
     15 C          67.6682   95.7733    8.6522 C.3     1  UNL1        0.4186
     16 F          68.3476   96.7129    7.7006 F       1  UNL1       -0.1659
     17 F          67.6251   96.8555    9.6900 F       1  UNL1       -0.1659
     18 F          67.7112   94.6911    7.6144 F       1  UNL1       -0.1659
     19 S          62.6365   87.6440   12.2676 S.O2    1  UNL1        0.0763
     20 O          61.3220   87.3619   11.6023 O.2     1  UNL1       -0.1497
     21 O          63.9510   87.9261   12.9329 O.2     1  UNL1       -0.1497
     22 C          63.0070   86.1953   12.1498 C.ar    1  UNL1        0.1213
     23 C          62.7320   85.4520   10.8763 C.ar    1  UNL1        0.0230
     24 C          63.1026   84.0032   10.7585 C.ar    1  UNL1        0.0379
     25 C          63.7481   83.2978   11.9142 C.ar    1  UNL1        0.1347
     26 C          64.0231   84.0411   13.1878 C.ar    1  UNL1        0.0095
     27 C          64.6686   83.3357   14.3435 C.3     1  UNL1        0.0339
     28 C          63.6526   85.4899   13.3056 C.ar    1  UNL1       -0.0040
     29 C          63.9276   86.2332   14.5791 C.3     1  UNL1        0.0322
     30 O          64.1186   81.8491   11.7964 O.3     1  UNL1       -0.4739
     31 C          63.0839   80.7888   12.0314 C.3     1  UNL1        0.2020
     32 C          62.6474   79.9035   10.9019 C.3     1  UNL1        0.0536
     33 C          62.4857   80.6138   13.3958 C.2     1  UNL1        0.0900
     34 O          63.2879   79.9739   14.4899 O.co2   1  UNL1       -0.5455
     35 O          61.0855   81.0787   13.6661 O.co2   1  UNL1       -0.5455
     36 C          60.8931   89.5503   11.9909 C.3     1  UNL1        0.1159
     37 C          60.7027   90.3640   10.7452 C.3     1  UNL1        0.0234
     38 C          59.9161   88.6268    8.9809 C.3     1  UNL1        0.0001
     39 C          60.8536   89.7206    9.3987 C.3     1  UNL1        0.0018
@<TRIPOS>UNITY_ATOM_ATTR
34 1
charge -1
@<TRIPOS>BOND
     1    38    39    1
     2    39    37    1
     3    37    36    1
     4    36     1    1
     5     1     2    1
     6     2     3   ar
     7     3     4   ar
     8     4     5   ar
     9     5     6   ar
    10     6     9    1
    11     9    10   ar
    12    10    11   ar
    13    11    12   ar
    14    12    15    1
    15    15    16    1
    16    15    17    1
    17    15    18    1
    18    12    13   ar
    19    13    14   ar
    20     6     7   ar
    21     7     8    1
    22     1    19    1
    23    19    20    2
    24    19    21    2
    25    19    22    1
    26    22    23   ar
    27    23    24   ar
    28    24    25   ar
    29    25    30    1
    30    30    31    1
    31    31    32    1
    32    31    33    1
    33    33    34   ar
    34    33    35   ar
    35    25    26   ar
    36    26    27    1
    37    26    28   ar
    38    28    29    1
    39     7     2   ar
    40    28    22   ar
    41    14     9   ar
@<TRIPOS>MOLECULE
*****
 39 41 0 0 0
SMALL
GASTEIGER

@<TRIPOS>ATOM
      1 N          64.2186   90.1451   14.8085 N.pl3   1  UNL1       -0.1898
      2 C          65.4710   90.9103   14.4982 C.ar    1  UNL1        0.0793
      3 C          66.6556   90.8127   15.4131 C.ar    1  UNL1        0.0170
      4 C          67.9079   91.5779   15.1028 C.ar    1  UNL1        0.0014
      5 C          67.9755   92.4407   13.8776 C.ar    1  UNL1        0.0009
      6 C          66.7908   92.5383   12.9628 C.ar    1  UNL1        0.0118
      7 C          65.5386   91.7731   13.2731 C.ar    1  UNL1        0.0725
      8 CL         64.3538   91.8707   12.3582 Cl      1  UNL1       -0.0809
      9 C          66.8584   93.4011   11.7376 C.ar    1  UNL1        0.0008
     10 C          67.5720   92.9102   10.5130 C.ar    1  UNL1       -0.0000
     11 C          67.6396   93.7730    9.2879 C.ar    1  UNL1        0.0039
     12 C          66.9936   95.1267    9.2873 C.ar    1  UNL1        0.0714
     13 C          66.2800   95.6176   10.5119 C.ar    1  UNL1        0.0039
     14 C          66.2124   94.7548   11.7370 C.ar    1  UNL1       -0.0000
     15 C          67.0612   95.9895    8.0621 C.3     1  UNL1        0.4186
     16 F          67.1288   96.8522    6.8370 F       1  UNL1       -0.1659
     17 F          68.1101   96.8380    8.7176 F       1  UNL1       -0.1659
     18 F          66.0123   95.1409    7.4067 F       1  UNL1       -0.1659
     19 S          63.6440   89.2034   13.7922 S.O2    1  UNL1        0.0763
     20 O          62.3958   90.0329   13.7294 O.2     1  UNL1       -0.1497
     21 O          64.8922   88.3739   13.8551 O.2     1  UNL1       -0.1497
     22 C          63.0693   88.2616   12.7759 C.ar    1  UNL1        0.1213
     23 C          62.3437   88.8013   11.5792 C.ar    1  UNL1        0.0230
     24 C          61.7690   87.8595   10.5629 C.ar    1  UNL1        0.0379
     25 C          61.9200   86.3781   10.7434 C.ar    1  UNL1        0.1347
     26 C          62.6456   85.8384   11.9402 C.ar    1  UNL1        0.0095
     27 C          62.7966   84.3570   12.1206 C.3     1  UNL1        0.0339
     28 C          63.2203   86.7801   12.9564 C.ar    1  UNL1       -0.0040
     29 C          63.9459   86.2405   14.1532 C.3     1  UNL1        0.0322
     30 O          61.3453   85.4363    9.7271 O.3     1  UNL1       -0.4739
     31 C          61.8557   85.4522    8.3167 C.3     1  UNL1        0.2020
     32 C          63.3282   85.5627    8.0532 C.3     1  UNL1        0.0536
     33 C          60.8936   85.3577    7.1698 C.2     1  UNL1        0.0900
     34 O          59.7193   86.2882    7.0973 O.co2   1  UNL1       -0.5455
     35 O          61.1058   84.3327    6.0954 O.co2   1  UNL1       -0.5455
     36 C          63.5410   90.3217   16.1350 C.3     1  UNL1        0.1159
     37 C          62.6752   89.2279   16.6865 C.3     1  UNL1        0.0234
     38 C          62.4193   86.8044   17.5870 C.3     1  UNL1        0.0001
     39 C          63.2932   87.9379   17.1380 C.3     1  UNL1        0.0018
@<TRIPOS>UNITY_ATOM_ATTR
34 1
charge -1
@<TRIPOS>BOND
     1    38    39    1
     2    39    37    1
     3    37    36    1
     4    36     1    1
     5     1     2    1
     6     2     3   ar
     7     3     4   ar
     8     4     5   ar
     9     5     6   ar
    10     6     9    1
    11     9    10   ar
    12    10    11   ar
    13    11    12   ar
    14    12    15    1
    15    15    16    1
    16    15    17    1
    17    15    18    1
    18    12    13   ar
    19    13    14   ar
    20     6     7   ar
    21     7     8    1
    22     1    19    1
    23    19    20    2
    24    19    21    2
    25    19    22    1
    26    22    23   ar
    27    23    24   ar
    28    24    25   ar
    29    25    30    1
    30    30    31    1
    31    31    32    1
    32    31    33    1
    33    33    34   ar
    34    33    35   ar
    35    25    26   ar
    36    26    27    1
    37    26    28   ar
    38    28    29    1
    39     7     2   ar
    40    28    22   ar
    41    14     9   ar
@<TRIPOS>MOLECULE
*****
 39 41 0 0 0
SMALL
GASTEIGER

@<TRIPOS>ATOM
      1 N          63.4999   88.8043   14.8623 N.pl3   1  UNL1       -0.1898
      2 C          63.6652   87.4437   14.2527 C.ar    1  UNL1        0.0793
      3 C          64.2962   86.3381   15.0461 C.ar    1  UNL1        0.0170
      4 C          64.4615   84.9776   14.4365 C.ar    1  UNL1        0.0014
      5 C          63.9957   84.7226   13.0337 C.ar    1  UNL1        0.0009
      6 C          63.3647   85.8282   12.2403 C.ar    1  UNL1        0.0118
      7 C          63.1994   87.1888   12.8499 C.ar    1  UNL1        0.0725
      8 CL         62.5684   88.2944   12.0565 Cl      1  UNL1       -0.0809
      9 C          62.8989   85.5733   10.8374 C.ar    1  UNL1        0.0008
     10 C          61.6461   86.2258   10.3329 C.ar    1  UNL1       -0.0000
     11 C          61.1803   85.9708    8.9300 C.ar    1  UNL1        0.0039
     12 C          61.9674   85.0634    8.0317 C.ar    1  UNL1        0.0714
     13 C          63.2202   84.4109    8.5362 C.ar    1  UNL1        0.0039
     14 C          63.6860   84.6658    9.9391 C.ar    1  UNL1       -0.0000
     15 C          61.5016   84.8084    6.6288 C.3     1  UNL1        0.4186
     16 F          61.0359   84.5535    5.2259 F       1  UNL1       -0.1659
     17 F          60.1077   85.2007    7.0203 F       1  UNL1       -0.1659
     18 F          62.8955   84.4162    6.2373 F       1  UNL1       -0.1659
     19 S          64.1794   89.9904   14.2445 S.O2    1  UNL1        0.0763
     20 O          62.8653   90.7112   14.1833 O.2     1  UNL1       -0.1497
     21 O          65.4934   89.2696   14.3057 O.2     1  UNL1       -0.1497
     22 C          64.8588   91.1765   13.6268 C.ar    1  UNL1        0.1213
     23 C          64.6750   91.4702   12.1674 C.ar    1  UNL1        0.0230
     24 C          65.3545   92.6562   11.5496 C.ar    1  UNL1        0.0379
     25 C          66.2176   93.5487   12.3913 C.ar    1  UNL1        0.1347
     26 C          66.4014   93.2550   13.8508 C.ar    1  UNL1        0.0095
     27 C          67.2646   94.1474   14.6925 C.3     1  UNL1        0.0339
     28 C          65.7220   92.0689   14.4686 C.ar    1  UNL1       -0.0040
     29 C          65.9057   91.7753   15.9280 C.3     1  UNL1        0.0322
     30 O          66.8970   94.7347   11.7736 O.3     1  UNL1       -0.4739
     31 C          66.5725   95.1356   10.3651 C.3     1  UNL1        0.2020
     32 C          65.3731   95.9922   10.0865 C.3     1  UNL1        0.0536
     33 C          67.4474   94.6798    9.2351 C.2     1  UNL1        0.0900
     34 O          68.7122   93.9264    9.5226 O.co2   1  UNL1       -0.5455
     35 O          67.0574   94.9773    7.8176 O.co2   1  UNL1       -0.5455
     36 C          62.6553   88.9788   16.0895 C.3     1  UNL1        0.1159
     37 C          63.1801   88.5517   17.4282 C.3     1  UNL1        0.0234
     38 C          61.8578   86.3237   17.2366 C.3     1  UNL1        0.0001
     39 C          62.7988   87.2149   17.9916 C.3     1  UNL1        0.0018
@<TRIPOS>UNITY_ATOM_ATTR
34 1
charge -1
@<TRIPOS>BOND
     1    38    39    1
     2    39    37    1
     3    37    36    1
     4    36     1    1
     5     1     2    1
     6     2     3   ar
     7     3     4   ar
     8     4     5   ar
     9     5     6   ar
    10     6     9    1
    11     9    10   ar
    12    10    11   ar
    13    11    12   ar
    14    12    15    1
    15    15    16    1
    16    15    17    1
    17    15    18    1
    18    12    13   ar
    19    13    14   ar
    20     6     7   ar
    21     7     8    1
    22     1    19    1
    23    19    20    2
    24    19    21    2
    25    19    22    1
    26    22    23   ar
    27    23    24   ar
    28    24    25   ar
    29    25    30    1
    30    30    31    1
    31    31    32    1
    32    31    33    1
    33    33    34   ar
    34    33    35   ar
    35    25    26   ar
    36    26    27    1
    37    26    28   ar
    38    28    29    1
    39     7     2   ar
    40    28    22   ar
    41    14     9   ar
@<TRIPOS>MOLECULE
*****
 39 41 0 0 0
SMALL
GASTEIGER

@<TRIPOS>ATOM
      1 N          62.0037   89.1092   12.2920 N.pl3   1  UNL1       -0.1898
      2 C          63.0238   90.0761   12.8159 C.ar    1  UNL1        0.0793
      3 C          63.3235   90.1275   14.2847 C.ar    1  UNL1        0.0170
      4 C          64.3436   91.0944   14.8086 C.ar    1  UNL1        0.0014
      5 C          65.0640   92.0098   13.8637 C.ar    1  UNL1        0.0009
      6 C          64.7644   91.9584   12.3948 C.ar    1  UNL1        0.0118
      7 C          63.7443   90.9915   11.8710 C.ar    1  UNL1        0.0725
      8 CL         63.4445   90.9401   10.4021 Cl      1  UNL1       -0.0809
      9 C          65.4848   92.8739   11.4499 C.ar    1  UNL1        0.0008
     10 C          66.6246   92.3542   10.6248 C.ar    1  UNL1       -0.0000
     11 C          67.3450   93.2696    9.6799 C.ar    1  UNL1        0.0039
     12 C          66.9256   94.7048    9.5599 C.ar    1  UNL1        0.0714
     13 C          65.7858   95.2245   10.3850 C.ar    1  UNL1        0.0039
     14 C          65.0654   94.3090   11.3299 C.ar    1  UNL1       -0.0000
     15 C          67.6460   95.6202    8.6150 C.3     1  UNL1        0.4186
     16 F          68.3664   96.5357    7.6700 F       1  UNL1       -0.1659
     17 F          67.6636   94.5363    7.5783 F       1  UNL1       -0.1659
     18 F          67.6284   96.7042    9.6517 F       1  UNL1       -0.1659
     19 S          62.3764   87.6735   12.0686 S.O2    1  UNL1        0.0763
     20 O          63.7636   87.9565   12.5641 O.2     1  UNL1       -0.1497
     21 O          60.9892   87.3905   11.5730 O.2     1  UNL1       -0.1497
     22 C          62.7491   86.2378   11.8452 C.ar    1  UNL1        0.1213
     23 C          63.0558   85.3516   13.0159 C.ar    1  UNL1        0.0230
     24 C          63.4285   83.9160   12.7925 C.ar    1  UNL1        0.0379
     25 C          63.4946   83.3665   11.3983 C.ar    1  UNL1        0.1347
     26 C          63.1879   84.2527   10.2275 C.ar    1  UNL1        0.0095
     27 C          63.2540   83.7032    8.8334 C.3     1  UNL1        0.0339
     28 C          62.8152   85.6883   10.4509 C.ar    1  UNL1       -0.0040
     29 C          62.5086   86.5745    9.2802 C.3     1  UNL1        0.0322
     30 O          63.8673   81.9308   11.1749 O.3     1  UNL1       -0.4739
     31 C          63.0550   80.8383   11.8047 C.3     1  UNL1        0.2020
     32 C          62.6411   79.6477   10.9917 C.3     1  UNL1        0.0536
     33 C          62.6567   80.9364   13.2476 C.2     1  UNL1        0.0900
     34 O          61.2261   81.1989   13.6145 O.co2   1  UNL1       -0.5455
     35 O          63.6889   80.7720   14.3234 O.co2   1  UNL1       -0.5455
     36 C          60.6109   89.5779   11.9915 C.3     1  UNL1        0.1159
     37 C          60.3614   90.4900   10.8270 C.3     1  UNL1        0.0234
     38 C          59.7822   88.7660    8.9717 C.3     1  UNL1        0.0001
     39 C          60.5335   89.9821    9.4262 C.3     1  UNL1        0.0018
@<TRIPOS>UNITY_ATOM_ATTR
34 1
charge -1
@<TRIPOS>BOND
     1    38    39    1
     2    39    37    1
     3    37    36    1
     4    36     1    1
     5     1     2    1
     6     2     3   ar
     7     3     4   ar
     8     4     5   ar
     9     5     6   ar
    10     6     9    1
    11     9    10   ar
    12    10    11   ar
    13    11    12   ar
    14    12    15    1
    15    15    16    1
    16    15    17    1
    17    15    18    1
    18    12    13   ar
    19    13    14   ar
    20     6     7   ar
    21     7     8    1
    22     1    19    1
    23    19    20    2
    24    19    21    2
    25    19    22    1
    26    22    23   ar
    27    23    24   ar
    28    24    25   ar
    29    25    30    1
    30    30    31    1
    31    31    32    1
    32    31    33    1
    33    33    34   ar
    34    33    35   ar
    35    25    26   ar
    36    26    27    1
    37    26    28   ar
    38    28    29    1
    39     7     2   ar
    40    28    22   ar
    41    14     9   ar
@<TRIPOS>MOLECULE
*****
 39 41 0 0 0
SMALL
GASTEIGER

@<TRIPOS>ATOM
      1 N          61.6309   88.3650   11.2548 N.pl3   1  UNL1       -0.1898
      2 C          62.1561   87.1587   10.5344 C.ar    1  UNL1        0.0793
      3 C          62.6737   87.2886    9.1325 C.ar    1  UNL1        0.0170
      4 C          63.1988   86.0823    8.4121 C.ar    1  UNL1        0.0014
      5 C          63.2064   84.7461    9.0936 C.ar    1  UNL1        0.0009
      6 C          62.6888   84.6161   10.4954 C.ar    1  UNL1        0.0118
      7 C          62.1637   85.8224   11.2158 C.ar    1  UNL1        0.0725
      8 CL         61.6461   85.6925   12.6177 Cl      1  UNL1       -0.0809
      9 C          62.6964   83.2799   11.1769 C.ar    1  UNL1        0.0008
     10 C          62.3522   83.1787   12.6333 C.ar    1  UNL1       -0.0000
     11 C          62.3598   81.8425   13.3147 C.ar    1  UNL1        0.0039
     12 C          62.7116   80.6074   12.5398 C.ar    1  UNL1        0.0714
     13 C          63.0558   80.7085   11.0833 C.ar    1  UNL1        0.0039
     14 C          63.0482   82.0447   10.4019 C.ar    1  UNL1       -0.0000
     15 C          62.7192   79.2711   13.2212 C.3     1  UNL1        0.4186
     16 F          62.7268   77.9349   13.9027 F       1  UNL1       -0.1659
     17 F          62.9349   79.9465   14.5431 F       1  UNL1       -0.1659
     18 F          62.5035   78.5958   11.8993 F       1  UNL1       -0.1659
     19 S          62.5839   89.3276   11.8992 S.O2    1  UNL1        0.0763
     20 O          61.7064   90.4722   11.4872 O.2     1  UNL1       -0.1497
     21 O          63.4614   88.1830   12.3113 O.2     1  UNL1       -0.1497
     22 C          63.5369   90.2902   12.5437 C.ar    1  UNL1        0.1213
     23 C          63.8732   90.1517   13.9989 C.ar    1  UNL1        0.0230
     24 C          64.8262   91.1143   14.6433 C.ar    1  UNL1        0.0379
     25 C          65.4429   92.2153   13.8325 C.ar    1  UNL1        0.1347
     26 C          65.1066   92.3538   12.3772 C.ar    1  UNL1        0.0095
     27 C          65.7232   93.4548   11.5664 C.3     1  UNL1        0.0339
     28 C          64.1536   91.3912   11.7328 C.ar    1  UNL1       -0.0040
     29 C          63.8173   91.5297   10.2776 C.3     1  UNL1        0.0322
     30 O          66.3958   93.1779   14.4769 O.3     1  UNL1       -0.4739
     31 C          67.7285   92.6973   14.9698 C.3     1  UNL1        0.2020
     32 C          67.9571   92.4969   16.4387 C.3     1  UNL1        0.0536
     33 C          68.8326   92.4170   13.9938 C.2     1  UNL1        0.0900
     34 O          68.5279   91.7380   12.6914 O.co2   1  UNL1       -0.5455
     35 O          70.2413   92.8156   14.3202 O.co2   1  UNL1       -0.5455
     36 C          60.1529   88.6087   11.3308 C.3     1  UNL1        0.1159
     37 C          59.3179   88.5497   10.0860 C.3     1  UNL1        0.0234
     38 C          59.5984   88.5347    7.5032 C.3     1  UNL1        0.0001
     39 C          59.7997   89.2091    8.8278 C.3     1  UNL1        0.0018
@<TRIPOS>UNITY_ATOM_ATTR
34 1
charge -1
@<TRIPOS>BOND
     1    38    39    1
     2    39    37    1
     3    37    36    1
     4    36     1    1
     5     1     2    1
     6     2     3   ar
     7     3     4   ar
     8     4     5   ar
     9     5     6   ar
    10     6     9    1
    11     9    10   ar
    12    10    11   ar
    13    11    12   ar
    14    12    15    1
    15    15    16    1
    16    15    17    1
    17    15    18    1
    18    12    13   ar
    19    13    14   ar
    20     6     7   ar
    21     7     8    1
    22     1    19    1
    23    19    20    2
    24    19    21    2
    25    19    22    1
    26    22    23   ar
    27    23    24   ar
    28    24    25   ar
    29    25    30    1
    30    30    31    1
    31    31    32    1
    32    31    33    1
    33    33    34   ar
    34    33    35   ar
    35    25    26   ar
    36    26    27    1
    37    26    28   ar
    38    28    29    1
    39     7     2   ar
    40    28    22   ar
    41    14     9   ar
@<TRIPOS>MOLECULE
*****
 39 41 0 0 0
SMALL
GASTEIGER

@<TRIPOS>ATOM
      1 N          61.8284   89.0556   11.9235 N.pl3   1  UNL1       -0.1898
      2 C          62.8070   90.1466   11.6038 C.ar    1  UNL1        0.0793
      3 C          62.7236   90.8681   10.2914 C.ar    1  UNL1        0.0170
      4 C          63.7022   91.9590    9.9717 C.ar    1  UNL1        0.0014
      5 C          64.7642   92.3284   10.9645 C.ar    1  UNL1        0.0009
      6 C          64.8477   91.6069   12.2769 C.ar    1  UNL1        0.0118
      7 C          63.8691   90.5160   12.5965 C.ar    1  UNL1        0.0725
      8 CL         63.9525   89.7944   13.9090 Cl      1  UNL1       -0.0809
      9 C          65.9097   91.9763   13.2697 C.ar    1  UNL1        0.0008
     10 C          65.5264   92.3834   14.6615 C.ar    1  UNL1       -0.0000
     11 C          66.5884   92.7528   15.6543 C.ar    1  UNL1        0.0039
     12 C          68.0338   92.7151   15.2552 C.ar    1  UNL1        0.0714
     13 C          68.4172   92.3080   13.8633 C.ar    1  UNL1        0.0039
     14 C          67.3551   91.9386   12.8706 C.ar    1  UNL1       -0.0000
     15 C          69.0959   93.0845   16.2479 C.3     1  UNL1        0.4186
     16 F          70.1580   93.4540   17.2407 F       1  UNL1       -0.1659
     17 F          69.5298   94.2153   15.3630 F       1  UNL1       -0.1659
     18 F          68.6620   91.9538   17.1329 F       1  UNL1       -0.1659
     19 S          62.2746   87.6235   11.9214 S.O2    1  UNL1        0.0763
     20 O          63.6857   88.0628   12.1780 O.2     1  UNL1       -0.1497
     21 O          60.8635   87.1842   11.6648 O.2     1  UNL1       -0.1497
     22 C          62.7209   86.1914   11.9193 C.ar    1  UNL1        0.1213
     23 C          63.0303   85.5004   13.2142 C.ar    1  UNL1        0.0230
     24 C          63.4765   84.0683   13.2121 C.ar    1  UNL1        0.0379
     25 C          63.6133   83.3273   11.9152 C.ar    1  UNL1        0.1347
     26 C          63.3039   84.0183   10.6202 C.ar    1  UNL1        0.0095
     27 C          63.4407   83.2772    9.3233 C.3     1  UNL1        0.0339
     28 C          62.8577   85.4504   10.6223 C.ar    1  UNL1       -0.0040
     29 C          62.5483   86.1414    9.3275 C.3     1  UNL1        0.0322
     30 O          64.0596   81.8952   11.9131 O.3     1  UNL1       -0.4739
     31 C          63.0551   80.7964   12.0966 C.3     1  UNL1        0.2020
     32 C          62.6695   79.9309   10.9338 C.3     1  UNL1        0.0536
     33 C          62.4363   80.5630   13.4430 C.2     1  UNL1        0.0900
     34 O          61.0268   81.0029   13.7070 O.co2   1  UNL1       -0.5455
     35 O          63.2271   79.8897   14.5253 O.co2   1  UNL1       -0.5455
     36 C          60.4036   89.3967   12.2452 C.3     1  UNL1        0.1159
     37 C          59.5423   90.0677   11.2165 C.3     1  UNL1        0.0234
     38 C          59.8948   88.8125    8.9694 C.3     1  UNL1        0.0001
     39 C          59.9618   90.0750    9.7764 C.3     1  UNL1        0.0018
@<TRIPOS>UNITY_ATOM_ATTR
34 1
charge -1
@<TRIPOS>BOND
     1    38    39    1
     2    39    37    1
     3    37    36    1
     4    36     1    1
     5     1     2    1
     6     2     3   ar
     7     3     4   ar
     8     4     5   ar
     9     5     6   ar
    10     6     9    1
    11     9    10   ar
    12    10    11   ar
    13    11    12   ar
    14    12    15    1
    15    15    16    1
    16    15    17    1
    17    15    18    1
    18    12    13   ar
    19    13    14   ar
    20     6     7   ar
    21     7     8    1
    22     1    19    1
    23    19    20    2
    24    19    21    2
    25    19    22    1
    26    22    23   ar
    27    23    24   ar
    28    24    25   ar
    29    25    30    1
    30    30    31    1
    31    31    32    1
    32    31    33    1
    33    33    34   ar
    34    33    35   ar
    35    25    26   ar
    36    26    27    1
    37    26    28   ar
    38    28    29    1
    39     7     2   ar
    40    28    22   ar
    41    14     9   ar
@<TRIPOS>MOLECULE
*****
 39 41 0 0 0
SMALL
GASTEIGER

@<TRIPOS>ATOM
      1 N          62.1551   89.6489   11.8821 N.pl3   1  UNL1       -0.1898
      2 C          63.2177   90.6572   11.5591 C.ar    1  UNL1        0.0793
      3 C          63.2220   91.3408   10.2240 C.ar    1  UNL1        0.0170
      4 C          64.2846   92.3490    9.9010 C.ar    1  UNL1        0.0014
      5 C          65.3430   92.6735   10.9131 C.ar    1  UNL1        0.0009
      6 C          65.3388   91.9899   12.2483 C.ar    1  UNL1        0.0118
      7 C          64.2762   90.9817   12.5712 C.ar    1  UNL1        0.0725
      8 CL         64.2719   90.2980   13.9064 Cl      1  UNL1       -0.0809
      9 C          66.3972   92.3144   13.2604 C.ar    1  UNL1        0.0008
     10 C          67.7842   91.7673   13.0969 C.ar    1  UNL1       -0.0000
     11 C          68.8426   92.0919   14.1090 C.ar    1  UNL1        0.0039
     12 C          68.5140   92.9635   15.2847 C.ar    1  UNL1        0.0714
     13 C          67.1270   93.5106   15.4482 C.ar    1  UNL1        0.0039
     14 C          66.0686   93.1861   14.4361 C.ar    1  UNL1       -0.0000
     15 C          69.5724   93.2881   16.2968 C.3     1  UNL1        0.4186
     16 F          70.6308   93.6126   17.3090 F       1  UNL1       -0.1659
     17 F          69.7331   94.6512   15.6918 F       1  UNL1       -0.1659
     18 F          69.4118   91.9249   16.9019 F       1  UNL1       -0.1659
     19 S          62.5156   88.2004   12.0298 S.O2    1  UNL1        0.0763
     20 O          62.7458   88.1069   10.5505 O.2     1  UNL1       -0.1497
     21 O          62.2855   88.2939   13.5090 O.2     1  UNL1       -0.1497
     22 C          62.8762   86.7519   12.1774 C.ar    1  UNL1        0.1213
     23 C          62.3432   85.7433   11.2034 C.ar    1  UNL1        0.0230
     24 C          62.7038   84.2948   11.3511 C.ar    1  UNL1        0.0379
     25 C          63.5973   83.8548   12.4727 C.ar    1  UNL1        0.1347
     26 C          64.1303   84.8635   13.4467 C.ar    1  UNL1        0.0095
     27 C          65.0238   84.4235   14.5683 C.3     1  UNL1        0.0339
     28 C          63.7698   86.3120   13.2991 C.ar    1  UNL1       -0.0040
     29 C          64.3027   87.3206   14.2730 C.3     1  UNL1        0.0322
     30 O          63.9579   82.4063   12.6203 O.3     1  UNL1       -0.4739
     31 C          62.8973   81.3998   12.9549 C.3     1  UNL1        0.2020
     32 C          62.7146   80.1874   12.0908 C.3     1  UNL1        0.0536
     33 C          62.0193   81.6056   14.1536 C.2     1  UNL1        0.0900
     34 O          60.6619   80.9696   14.2071 O.co2   1  UNL1       -0.5455
     35 O          62.4987   82.4475   15.2987 O.co2   1  UNL1       -0.5455
     36 C          60.7320   90.0892   12.0575 C.3     1  UNL1        0.1159
     37 C          59.7256   89.8216   10.9778 C.3     1  UNL1        0.0234
     38 C          59.8529   88.5525    8.7144 C.3     1  UNL1        0.0001
     39 C          60.1616   89.7636    9.5438 C.3     1  UNL1        0.0018
@<TRIPOS>UNITY_ATOM_ATTR
34 1
charge -1
@<TRIPOS>BOND
     1    38    39    1
     2    39    37    1
     3    37    36    1
     4    36     1    1
     5     1     2    1
     6     2     3   ar
     7     3     4   ar
     8     4     5   ar
     9     5     6   ar
    10     6     9    1
    11     9    10   ar
    12    10    11   ar
    13    11    12   ar
    14    12    15    1
    15    15    16    1
    16    15    17    1
    17    15    18    1
    18    12    13   ar
    19    13    14   ar
    20     6     7   ar
    21     7     8    1
    22     1    19    1
    23    19    20    2
    24    19    21    2
    25    19    22    1
    26    22    23   ar
    27    23    24   ar
    28    24    25   ar
    29    25    30    1
    30    30    31    1
    31    31    32    1
    32    31    33    1
    33    33    34   ar
    34    33    35   ar
    35    25    26   ar
    36    26    27    1
    37    26    28   ar
    38    28    29    1
    39     7     2   ar
    40    28    22   ar
    41    14     9   ar
