@<TRIPOS>MOLECULE
*****
 23 24 0 0 0
SMALL
GASTEIGER

@<TRIPOS>ATOM
      1 C          64.2044   91.5858   14.8932 C.2     1  UNL1        0.0412
      2 C          64.0152   90.1427   15.2561 C.2     1  UNL1       -0.0326
      3 C          64.6429   89.0697   14.4167 C.3     1  UNL1        0.0443
      4 C          64.4537   87.6267   14.7796 C.3     1  UNL1        0.1011
      5 N          63.6368   87.2566   15.9821 N.am    1  UNL1       -0.2454
      6 C          63.4476   85.8135   16.3450 C.2     1  UNL1        0.4047
      7 O          62.6307   85.4435   17.5474 O.2     1  UNL1       -0.2262
      8 C          63.0091   88.3296   16.8215 C.3     1  UNL1        0.1011
      9 C          63.1983   89.7727   16.4585 C.3     1  UNL1        0.0443
     10 C          65.8381   92.3259   12.4884 C.1     1  UNL1       -0.0405
     11 C          65.0213   91.9559   13.6907 C.1     1  UNL1       -0.0583
     12 C          66.7791   95.5153    8.4955 C.3     1  UNL1        0.0521
     13 C          67.1255   94.2907    9.2895 C.ar    1  UNL1        0.0600
     14 C          68.2887   93.4362    8.8811 C.ar    1  UNL1        0.0148
     15 C          68.6350   92.2116    9.6751 C.ar    1  UNL1        0.0034
     16 C          67.8182   91.8415   10.8775 C.ar    1  UNL1        0.0276
     17 C          66.6550   92.6960   11.2859 C.ar    1  UNL1        0.1224
     18 N          66.3086   93.9206   10.4919 N.ar    1  UNL1       -0.2414
     19 O          64.0752   84.7405   15.5056 O.3     1  UNL1       -0.4418
     20 C          63.3756   84.2461   14.2743 C.3     1  UNL1        0.1378
     21 C          64.6711   84.2921   13.5197 C.3     1  UNL1        0.0437
     22 C          62.0801   84.2000   15.0289 C.3     1  UNL1        0.0437
     23 C          62.6759   83.7516   13.0430 C.3     1  UNL1        0.0437
@<TRIPOS>BOND
     1    12    13    1
     2    13    14   ar
     3    14    15   ar
     4    15    16   ar
     5    16    17   ar
     6    17    10    1
     7    10    11    3
     8    11     1    1
     9     1     2    2
    10     2     3    1
    11     3     4    1
    12     4     5    1
    13     5     6   am
    14     6     7    2
    15     6    19    1
    16    19    20    1
    17    20    21    1
    18    20    22    1
    19    20    23    1
    20     5     8    1
    21     8     9    1
    22    17    18   ar
    23    18    13   ar
    24     9     2    1
@<TRIPOS>MOLECULE
*****
 23 24 0 0 0
SMALL
GASTEIGER

@<TRIPOS>ATOM
      1 C          63.9107   90.2053   15.7051 C.2     1  UNL1        0.0412
      2 C          63.8459   88.7153   15.5446 C.2     1  UNL1       -0.0326
      3 C          64.3960   88.0696   14.3075 C.3     1  UNL1        0.0443
      4 C          64.3311   86.5796   14.1470 C.3     1  UNL1        0.1011
      5 N          63.7161   85.7353   15.2236 N.am    1  UNL1       -0.2454
      6 C          63.6512   84.2454   15.0631 C.2     1  UNL1        0.4047
      7 O          63.0362   83.4012   16.1397 O.2     1  UNL1       -0.2262
      8 C          63.1660   86.3811   16.4607 C.3     1  UNL1        0.1011
      9 C          63.2308   87.8711   16.6211 C.3     1  UNL1        0.0443
     10 C          65.1407   91.8938   13.5519 C.1     1  UNL1       -0.0405
     11 C          64.5258   91.0495   14.6284 C.1     1  UNL1       -0.0583
     12 C          66.2313   96.5739   11.5752 C.3     1  UNL1        0.0521
     13 C          66.3010   95.0781   11.4870 C.ar    1  UNL1        0.0600
     14 C          66.9857   94.4266   10.3222 C.ar    1  UNL1        0.0148
     15 C          67.0555   92.9308   10.2340 C.ar    1  UNL1        0.0034
     16 C          66.4405   92.0866   11.3106 C.ar    1  UNL1        0.0276
     17 C          65.7558   92.7381   12.4753 C.ar    1  UNL1        0.1224
     18 N          65.6860   94.2338   12.5635 N.ar    1  UNL1       -0.2414
     19 O          64.2014   83.5996   13.8261 O.3     1  UNL1       -0.4418
     20 C          63.3209   82.7289   12.9796 C.3     1  UNL1        0.1378
     21 C          63.8843   81.5098   13.6477 C.3     1  UNL1        0.0437
     22 C          62.7575   83.9479   12.3115 C.3     1  UNL1        0.0437
     23 C          62.4404   81.8581   12.1331 C.3     1  UNL1        0.0437
@<TRIPOS>BOND
     1    12    13    1
     2    13    14   ar
     3    14    15   ar
     4    15    16   ar
     5    16    17   ar
     6    17    10    1
     7    10    11    3
     8    11     1    1
     9     1     2    2
    10     2     3    1
    11     3     4    1
    12     4     5    1
    13     5     6   am
    14     6     7    2
    15     6    19    1
    16    19    20    1
    17    20    21    1
    18    20    22    1
    19    20    23    1
    20     5     8    1
    21     8     9    1
    22    17    18   ar
    23    18    13   ar
    24     9     2    1
@<TRIPOS>MOLECULE
*****
 23 24 0 0 0
SMALL
GASTEIGER

@<TRIPOS>ATOM
      1 C          62.2556   87.8680   11.1315 C.2     1  UNL1        0.0412
      2 C          63.0490   88.9417   11.8153 C.2     1  UNL1       -0.0326
      3 C          63.9092   88.6018   12.9963 C.3     1  UNL1        0.0443
      4 C          64.7025   89.6755   13.6801 C.3     1  UNL1        0.1011
      5 N          64.6358   91.0892   13.1830 N.am    1  UNL1       -0.2454
      6 C          65.4291   92.1629   13.8668 C.2     1  UNL1        0.4047
      7 O          65.3623   93.5765   13.3697 O.2     1  UNL1       -0.2262
      8 C          63.7756   91.4291   12.0021 C.3     1  UNL1        0.1011
      9 C          62.9822   90.3553   11.3183 C.3     1  UNL1        0.0443
     10 C          62.3892   85.0406   12.1256 C.1     1  UNL1       -0.0405
     11 C          62.3224   86.4542   11.6286 C.1     1  UNL1       -0.0583
     12 C          62.9272   79.9593   11.1816 C.3     1  UNL1        0.0521
     13 C          62.7250   81.0863   12.1506 C.ar    1  UNL1        0.0600
     14 C          62.5896   80.7996   13.6167 C.ar    1  UNL1        0.0148
     15 C          62.3874   81.9265   14.5858 C.ar    1  UNL1        0.0034
     16 C          62.3206   83.3402   14.0888 C.ar    1  UNL1        0.0276
     17 C          62.4560   83.6269   12.6227 C.ar    1  UNL1        0.1224
     18 N          62.6582   82.4999   11.6536 N.ar    1  UNL1       -0.2414
     19 O          66.2893   91.8230   15.0477 O.3     1  UNL1       -0.4418
     20 C          67.7020   92.3227   15.1152 C.3     1  UNL1        0.1378
     21 C          67.9990   91.6603   13.8027 C.3     1  UNL1        0.0437
     22 C          67.4049   92.9852   16.4278 C.3     1  UNL1        0.0437
     23 C          69.1147   92.8225   15.1828 C.3     1  UNL1        0.0437
@<TRIPOS>BOND
     1    12    13    1
     2    13    14   ar
     3    14    15   ar
     4    15    16   ar
     5    16    17   ar
     6    17    10    1
     7    10    11    3
     8    11     1    1
     9     1     2    2
    10     2     3    1
    11     3     4    1
    12     4     5    1
    13     5     6   am
    14     6     7    2
    15     6    19    1
    16    19    20    1
    17    20    21    1
    18    20    22    1
    19    20    23    1
    20     5     8    1
    21     8     9    1
    22    17    18   ar
    23    18    13   ar
    24     9     2    1
@<TRIPOS>MOLECULE
*****
 23 24 0 0 0
SMALL
GASTEIGER

@<TRIPOS>ATOM
      1 C          63.5405   88.8705   12.9036 C.2     1  UNL1        0.0412
      2 C          64.1563   90.2302   12.7562 C.2     1  UNL1       -0.0326
      3 C          64.0016   90.9883   11.4711 C.3     1  UNL1        0.0443
      4 C          64.6174   92.3481   11.3237 C.3     1  UNL1        0.1011
      5 N          65.3880   92.9498   12.4614 N.am    1  UNL1       -0.2454
      6 C          66.0038   94.3096   12.3139 C.2     1  UNL1        0.4047
      7 O          66.7743   94.9112   13.4516 O.2     1  UNL1       -0.2262
      8 C          65.5427   92.1917   13.7464 C.3     1  UNL1        0.1011
      9 C          64.9268   90.8319   13.8938 C.3     1  UNL1        0.0443
     10 C          61.9993   87.6671   10.6283 C.1     1  UNL1       -0.0405
     11 C          62.7699   88.2687   11.7660 C.1     1  UNL1       -0.0583
     12 C          61.8126   84.5732    6.4578 C.3     1  UNL1        0.0521
     13 C          61.1354   85.5184    7.4054 C.ar    1  UNL1        0.0600
     14 C          59.6877   85.8619    7.2155 C.ar    1  UNL1        0.0148
     15 C          59.0105   86.8071    8.1631 C.ar    1  UNL1        0.0034
     16 C          59.7810   87.4088    9.3007 C.ar    1  UNL1        0.0276
     17 C          61.2287   87.0653    9.4907 C.ar    1  UNL1        0.1224
     18 N          61.9059   86.1202    8.5430 N.ar    1  UNL1       -0.2414
     19 O          65.8490   95.0677   11.0289 O.3     1  UNL1       -0.4418
     20 C          66.9484   95.0466   10.0086 C.3     1  UNL1        0.1378
     21 C          66.9484   96.5462    9.9777 C.3     1  UNL1        0.0437
     22 C          66.9483   93.5469   10.0396 C.3     1  UNL1        0.0437
     23 C          68.0477   95.0254    8.9883 C.3     1  UNL1        0.0437
@<TRIPOS>BOND
     1    12    13    1
     2    13    14   ar
     3    14    15   ar
     4    15    16   ar
     5    16    17   ar
     6    17    10    1
     7    10    11    3
     8    11     1    1
     9     1     2    2
    10     2     3    1
    11     3     4    1
    12     4     5    1
    13     5     6   am
    14     6     7    2
    15     6    19    1
    16    19    20    1
    17    20    21    1
    18    20    22    1
    19    20    23    1
    20     5     8    1
    21     8     9    1
    22    17    18   ar
    23    18    13   ar
    24     9     2    1
@<TRIPOS>MOLECULE
*****
 23 24 0 0 0
SMALL
GASTEIGER

@<TRIPOS>ATOM
      1 C          60.9605   87.6350    9.2530 C.2     1  UNL1        0.0412
      2 C          61.7640   88.2491   10.3608 C.2     1  UNL1       -0.0326
      3 C          61.9322   89.7381   10.4290 C.3     1  UNL1        0.0443
      4 C          62.7356   90.3521   11.5368 C.3     1  UNL1        0.1011
      5 N          63.3709   89.4772   12.5766 N.am    1  UNL1       -0.2454
      6 C          64.1744   90.0912   13.6844 C.2     1  UNL1        0.4047
      7 O          64.8097   89.2163   14.7240 O.2     1  UNL1       -0.2262
      8 C          63.2027   87.9882   12.5084 C.3     1  UNL1        0.1011
      9 C          62.3992   87.3742   11.4005 C.3     1  UNL1        0.0443
     10 C          59.6899   89.3849    7.1736 C.1     1  UNL1       -0.0405
     11 C          60.3252   88.5100    8.2133 C.1     1  UNL1       -0.0583
     12 C          60.1360   92.7942    3.2777 C.3     1  UNL1        0.0521
     13 C          59.2777   91.9645    4.1860 C.ar    1  UNL1        0.0600
     14 C          57.7842   92.0096    4.0545 C.ar    1  UNL1        0.0148
     15 C          56.9259   91.1799    4.9628 C.ar    1  UNL1        0.0034
     16 C          57.5611   90.3050    6.0025 C.ar    1  UNL1        0.0276
     17 C          59.0546   90.2598    6.1339 C.ar    1  UNL1        0.1224
     18 N          59.9129   91.0896    5.2257 N.ar    1  UNL1       -0.2414
     19 O          64.3426   91.5802   13.7526 O.3     1  UNL1       -0.4418
     20 C          65.7171   92.1808   13.7461 C.3     1  UNL1        0.1378
     21 C          65.6426   92.3353   12.2560 C.3     1  UNL1        0.0437
     22 C          65.7916   92.0263   15.2362 C.3     1  UNL1        0.0437
     23 C          67.0917   92.7814   13.7397 C.3     1  UNL1        0.0437
@<TRIPOS>BOND
     1    12    13    1
     2    13    14   ar
     3    14    15   ar
     4    15    16   ar
     5    16    17   ar
     6    17    10    1
     7    10    11    3
     8    11     1    1
     9     1     2    2
    10     2     3    1
    11     3     4    1
    12     4     5    1
    13     5     6   am
    14     6     7    2
    15     6    19    1
    16    19    20    1
    17    20    21    1
    18    20    22    1
    19    20    23    1
    20     5     8    1
    21     8     9    1
    22    17    18   ar
    23    18    13   ar
    24     9     2    1
@<TRIPOS>MOLECULE
*****
 23 24 0 0 0
SMALL
GASTEIGER

@<TRIPOS>ATOM
      1 C          60.6814   86.9127    9.1558 C.2     1  UNL1        0.0412
      2 C          61.5617   87.3143   10.3020 C.2     1  UNL1       -0.0326
      3 C          61.9878   88.7443   10.4552 C.3     1  UNL1        0.0443
      4 C          62.8681   89.1460   11.6014 C.3     1  UNL1        0.1011
      5 N          63.3224   88.1175   12.5944 N.am    1  UNL1       -0.2454
      6 C          64.2027   88.5191   13.7405 C.2     1  UNL1        0.4047
      7 O          64.6569   87.4907   14.7335 O.2     1  UNL1       -0.2262
      8 C          62.8963   86.6875   12.4412 C.3     1  UNL1        0.1011
      9 C          62.0160   86.2859   11.2949 C.3     1  UNL1        0.0443
     10 C          59.7728   88.9696    7.1699 C.1     1  UNL1       -0.0405
     11 C          60.2271   87.9411    8.1628 C.1     1  UNL1       -0.0583
     12 C          55.9355   91.5549    4.8054 C.3     1  UNL1        0.0521
     13 C          57.3999   91.2907    4.9947 C.ar    1  UNL1        0.0600
     14 C          58.4099   92.0548    4.1910 C.ar    1  UNL1        0.0148
     15 C          59.8743   91.7905    4.3803 C.ar    1  UNL1        0.0034
     16 C          60.3286   90.7621    5.3732 C.ar    1  UNL1        0.0276
     17 C          59.3185   89.9980    6.1769 C.ar    1  UNL1        0.1224
     18 N          57.8542   90.2623    5.9876 N.ar    1  UNL1       -0.2414
     19 O          64.6287   89.9492   13.8938 O.3     1  UNL1       -0.4418
     20 C          64.3436   90.6841   15.1699 C.3     1  UNL1        0.1378
     21 C          63.0477   89.9414   15.3080 C.3     1  UNL1        0.0437
     22 C          65.6394   91.4267   15.0318 C.3     1  UNL1        0.0437
     23 C          64.0584   91.4190   16.4461 C.3     1  UNL1        0.0437
@<TRIPOS>BOND
     1    12    13    1
     2    13    14   ar
     3    14    15   ar
     4    15    16   ar
     5    16    17   ar
     6    17    10    1
     7    10    11    3
     8    11     1    1
     9     1     2    2
    10     2     3    1
    11     3     4    1
    12     4     5    1
    13     5     6   am
    14     6     7    2
    15     6    19    1
    16    19    20    1
    17    20    21    1
    18    20    22    1
    19    20    23    1
    20     5     8    1
    21     8     9    1
    22    17    18   ar
    23    18    13   ar
    24     9     2    1
@<TRIPOS>MOLECULE
*****
 23 24 0 0 0
SMALL
GASTEIGER

@<TRIPOS>ATOM
      1 C          62.1723   88.9353   10.1378 C.2     1  UNL1        0.0412
      2 C          62.3155   87.6273   10.8579 C.2     1  UNL1       -0.0326
      3 C          63.3110   87.4892   11.9715 C.3     1  UNL1        0.0443
      4 C          63.4542   86.1812   12.6915 C.3     1  UNL1        0.1011
      5 N          62.6020   85.0112   12.2980 N.am    1  UNL1       -0.2454
      6 C          62.7453   83.7031   13.0181 C.2     1  UNL1        0.4047
      7 O          61.8930   82.5332   12.6246 O.2     1  UNL1       -0.2262
      8 C          61.6065   85.1492   11.1845 C.3     1  UNL1        0.1011
      9 C          61.4633   86.4573   10.4644 C.3     1  UNL1        0.0443
     10 C          63.8767   91.2753   10.9248 C.1     1  UNL1       -0.0405
     11 C          63.0245   90.1053   10.5313 C.1     1  UNL1       -0.0583
     12 C          66.7460   93.7614   14.4725 C.3     1  UNL1        0.0521
     13 C          66.1636   93.6884   13.0921 C.ar    1  UNL1        0.0600
     14 C          66.4333   94.7853   12.1053 C.ar    1  UNL1        0.0148
     15 C          65.8509   94.7123   10.7249 C.ar    1  UNL1        0.0034
     16 C          64.9987   93.5423   10.3314 C.ar    1  UNL1        0.0276
     17 C          64.7289   92.4454   11.3183 C.ar    1  UNL1        0.1224
     18 N          65.3114   92.5184   12.6986 N.ar    1  UNL1       -0.2414
     19 O          63.7407   83.5651   14.1317 O.3     1  UNL1       -0.4418
     20 C          63.7586   84.5647   15.2499 C.3     1  UNL1        0.1378
     21 C          62.3561   84.1795   15.6166 C.3     1  UNL1        0.0437
     22 C          65.1611   84.9499   14.8831 C.3     1  UNL1        0.0437
     23 C          63.7766   85.5644   16.3681 C.3     1  UNL1        0.0437
@<TRIPOS>BOND
     1    12    13    1
     2    13    14   ar
     3    14    15   ar
     4    15    16   ar
     5    16    17   ar
     6    17    10    1
     7    10    11    3
     8    11     1    1
     9     1     2    2
    10     2     3    1
    11     3     4    1
    12     4     5    1
    13     5     6   am
    14     6     7    2
    15     6    19    1
    16    19    20    1
    17    20    21    1
    18    20    22    1
    19    20    23    1
    20     5     8    1
    21     8     9    1
    22    17    18   ar
    23    18    13   ar
    24     9     2    1
@<TRIPOS>MOLECULE
*****
 23 24 0 0 0
SMALL
GASTEIGER

@<TRIPOS>ATOM
      1 C          63.2719   91.6585   10.8385 C.2     1  UNL1        0.0412
      2 C          62.7092   90.2894   10.5959 C.2     1  UNL1       -0.0326
      3 C          63.1724   89.1300   11.4274 C.3     1  UNL1        0.0443
      4 C          62.6097   87.7609   11.1848 C.3     1  UNL1        0.1011
      5 N          61.5838   87.5511   10.1107 N.am    1  UNL1       -0.2454
      6 C          61.0212   86.1820    9.8682 C.2     1  UNL1        0.4047
      7 O          59.9954   85.9722    8.7941 O.2     1  UNL1       -0.2262
      8 C          61.1207   88.7105    9.2793 C.3     1  UNL1        0.1011
      9 C          61.6834   90.0796    9.5219 C.3     1  UNL1        0.0443
     10 C          65.3236   92.0781   12.9867 C.1     1  UNL1       -0.0405
     11 C          64.2978   91.8683   11.9126 C.1     1  UNL1       -0.0583
     12 C          70.2900   92.5826   14.4292 C.3     1  UNL1        0.0521
     13 C          68.8327   92.5402   14.7820 C.ar    1  UNL1        0.0600
     14 C          68.4012   92.7075   16.2088 C.ar    1  UNL1        0.0148
     15 C          66.9439   92.6650   16.5616 C.ar    1  UNL1        0.0034
     16 C          65.9180   92.4552   15.4876 C.ar    1  UNL1        0.0276
     17 C          66.3495   92.2879   14.0608 C.ar    1  UNL1        0.1224
     18 N          67.8068   92.3304   13.7080 N.ar    1  UNL1       -0.2414
     19 O          61.4843   85.0226   10.6997 O.3     1  UNL1       -0.4418
     20 C          62.7712   84.3276   10.3667 C.3     1  UNL1        0.1378
     21 C          62.7636   83.6682   11.7140 C.3     1  UNL1        0.0437
     22 C          62.7787   84.9869    9.0194 C.3     1  UNL1        0.0437
     23 C          64.0581   83.6325   10.0337 C.3     1  UNL1        0.0437
@<TRIPOS>BOND
     1    12    13    1
     2    13    14   ar
     3    14    15   ar
     4    15    16   ar
     5    16    17   ar
     6    17    10    1
     7    10    11    3
     8    11     1    1
     9     1     2    2
    10     2     3    1
    11     3     4    1
    12     4     5    1
    13     5     6   am
    14     6     7    2
    15     6    19    1
    16    19    20    1
    17    20    21    1
    18    20    22    1
    19    20    23    1
    20     5     8    1
    21     8     9    1
    22    17    18   ar
    23    18    13   ar
    24     9     2    1
@<TRIPOS>MOLECULE
*****
 23 24 0 0 0
SMALL
GASTEIGER

@<TRIPOS>ATOM
      1 C          62.7348   89.1529   10.5327 C.2     1  UNL1        0.0412
      2 C          63.5234   90.2129   11.2431 C.2     1  UNL1       -0.0326
      3 C          64.2280   89.8895   12.5272 C.3     1  UNL1        0.0443
      4 C          65.0166   90.9494   13.2375 C.3     1  UNL1        0.1011
      5 N          65.1004   92.3329   12.6638 N.am    1  UNL1       -0.2454
      6 C          65.8890   93.3929   13.3741 C.2     1  UNL1        0.4047
      7 O          65.9728   94.7762   12.8004 O.2     1  UNL1       -0.2262
      8 C          64.3958   92.6563   11.3797 C.3     1  UNL1        0.1011
      9 C          63.6072   91.5962   10.6693 C.3     1  UNL1        0.0443
     10 C          62.5670   86.3860   11.6801 C.1     1  UNL1       -0.0405
     11 C          62.6510   87.7694   11.1065 C.1     1  UNL1       -0.0583
     12 C          62.2617   83.2337   15.7996 C.3     1  UNL1        0.0521
     13 C          62.3305   83.4265   14.3136 C.ar    1  UNL1        0.0600
     14 C          62.3154   82.2359   13.4014 C.ar    1  UNL1        0.0148
     15 C          62.3842   82.4286   11.9154 C.ar    1  UNL1        0.0034
     16 C          62.4681   83.8120   11.3417 C.ar    1  UNL1        0.0276
     17 C          62.4832   85.0026   12.2539 C.ar    1  UNL1        0.1224
     18 N          62.4144   84.8098   13.7398 N.ar    1  UNL1       -0.2414
     19 O          66.5936   93.0695   14.6582 O.3     1  UNL1       -0.4418
     20 C          68.0755   92.8372   14.6626 C.3     1  UNL1        0.1378
     21 C          68.2134   93.7397   15.8527 C.3     1  UNL1        0.0437
     22 C          67.9376   91.9347   13.4725 C.3     1  UNL1        0.0437
     23 C          69.5575   92.6049   14.6669 C.3     1  UNL1        0.0437
@<TRIPOS>BOND
     1    12    13    1
     2    13    14   ar
     3    14    15   ar
     4    15    16   ar
     5    16    17   ar
     6    17    10    1
     7    10    11    3
     8    11     1    1
     9     1     2    2
    10     2     3    1
    11     3     4    1
    12     4     5    1
    13     5     6   am
    14     6     7    2
    15     6    19    1
    16    19    20    1
    17    20    21    1
    18    20    22    1
    19    20    23    1
    20     5     8    1
    21     8     9    1
    22    17    18   ar
    23    18    13   ar
    24     9     2    1
