@<TRIPOS>MOLECULE
*****
 33 35 0 0 0
SMALL
GASTEIGER

@<TRIPOS>ATOM
      1 C          64.5616   91.5855   12.4978 C.ar    1  UNL1        0.1663
      2 C          64.1916   90.6360   13.5984 C.ar    1  UNL1        0.0942
      3 CL         64.8774   90.7266   14.9293 Cl      1  UNL1       -0.0790
      4 C          63.1357   89.5957   13.3681 C.ar    1  UNL1        0.0304
      5 C          62.4498   89.5050   12.0372 C.ar    1  UNL1        0.0667
      6 C          62.8198   90.4546   10.9366 C.ar    1  UNL1        0.0304
      7 C          63.8756   91.4948   11.1668 C.ar    1  UNL1        0.0942
      8 CL         64.2456   92.4444   10.0662 Cl      1  UNL1       -0.0790
      9 N          61.3940   88.4648   11.8070 N.pl3   1  UNL1       -0.2149
     10 H          60.6597   88.3571   12.4538 H       1  UNL1        0.1737
     11 S          61.4569   87.5886   10.5911 S.O2    1  UNL1        0.0744
     12 O          61.4821   86.3725   11.4688 O.2     1  UNL1       -0.1499
     13 O          61.4317   88.8048    9.7134 O.2     1  UNL1       -0.1499
     14 C          61.5198   86.7124    9.3752 C.ar    1  UNL1        0.1357
     15 C          62.7964   86.0078    9.0238 C.ar    1  UNL1        0.0219
     16 C          62.8593   85.1316    7.8079 C.ar    1  UNL1        0.0128
     17 C          61.6456   84.9600    6.9435 C.ar    1  UNL1        0.0586
     18 CL         61.7084   84.0838    5.7276 Cl      1  UNL1       -0.0822
     19 C          60.3688   85.6647    7.2949 C.ar    1  UNL1        0.0241
     20 C          60.3059   86.5409    8.5108 C.ar    1  UNL1        0.0773
     21 CL         59.0292   87.2455    8.8623 Cl      1  UNL1       -0.0808
     22 O          65.6174   92.6258   12.7281 O.3     1  UNL1       -0.4502
     23 C          67.1219   94.8432    9.8007 C.ar    1  UNL1        0.0753
     24 C          68.2389   93.9630    9.3237 C.ar    1  UNL1        0.1036
     25 N          68.4820   92.6370    9.9815 N.ar    1  UNL1       -0.2390
     26 C          67.6082   92.1913   11.1163 C.ar    1  UNL1        0.1362
     27 C          66.4913   93.0715   11.5932 C.ar    1  UNL1        0.1646
     28 C          66.2481   94.3975   10.9355 C.ar    1  UNL1        0.0452
     29 N          67.9596   96.8091    8.3230 N.am    1  UNL1       -0.3253
     30 C          66.8788   96.1692    9.1429 C.2     1  UNL1        0.2444
     31 O          65.5548   96.8553    9.3051 O.2     1  UNL1       -0.2703
     32 H          67.8000   97.6794    7.8913 H       1  UNL1        0.1453
     33 H          68.8286   96.3588    8.2166 H       1  UNL1        0.1453
@<TRIPOS>BOND
     1    29    30   am
     2    30    31    2
     3    30    23    1
     4    23    24   ar
     5    24    25   ar
     6    25    26   ar
     7    26    27   ar
     8    27    22    1
     9    22     1    1
    10     1     2   ar
    11     2     3    1
    12     2     4   ar
    13     4     5   ar
    14     5     9    1
    15     9    11    1
    16    11    12    2
    17    11    13    2
    18    11    14    1
    19    14    15   ar
    20    15    16   ar
    21    16    17   ar
    22    17    18    1
    23    17    19   ar
    24    19    20   ar
    25    20    21    1
    26     5     6   ar
    27     6     7   ar
    28     7     8    1
    29    27    28   ar
    30    28    23   ar
    31     7     1   ar
    32    20    14   ar
    33    29    32    1
    34    29    33    1
    35     9    10    1
@<TRIPOS>MOLECULE
*****
 33 35 0 0 0
SMALL
GASTEIGER

@<TRIPOS>ATOM
      1 C          62.7177   88.7991   12.2401 C.ar    1  UNL1        0.1663
      2 C          63.7531   88.6931   13.3203 C.ar    1  UNL1        0.0942
      3 CL         63.9165   87.4096   14.0791 Cl      1  UNL1       -0.0790
      4 C          64.6250   89.8706   13.6416 C.ar    1  UNL1        0.0304
      5 C          64.4616   91.1541   12.8828 C.ar    1  UNL1        0.0667
      6 C          63.4262   91.2602   11.8026 C.ar    1  UNL1        0.0304
      7 C          62.5543   90.0827   11.4813 C.ar    1  UNL1        0.0942
      8 CL         61.5189   90.1888   10.4011 Cl      1  UNL1       -0.0790
      9 N          65.3335   92.3316   13.2042 N.pl3   1  UNL1       -0.2149
     10 H          65.5939   92.5114   14.1364 H       1  UNL1        0.1737
     11 S          65.8087   93.2351   12.1052 S.O2    1  UNL1        0.0744
     12 O          65.3245   92.2483   11.0845 O.2     1  UNL1       -0.1499
     13 O          66.2928   94.2220   13.1258 O.2     1  UNL1       -0.1499
     14 C          66.2838   94.1387   11.0062 C.ar    1  UNL1        0.1357
     15 C          65.6878   95.5061   10.8490 C.ar    1  UNL1        0.0219
     16 C          66.1629   96.4096    9.7500 C.ar    1  UNL1        0.0128
     17 C          67.2342   95.9457    8.8081 C.ar    1  UNL1        0.0586
     18 CL         67.7094   96.8493    7.7091 Cl      1  UNL1       -0.0822
     19 C          67.8303   94.5782    8.9653 C.ar    1  UNL1        0.0241
     20 C          67.3552   93.6747   10.0643 C.ar    1  UNL1        0.0773
     21 CL         67.9512   92.3073   10.2214 Cl      1  UNL1       -0.0808
     22 O          61.8458   87.6217   11.9187 O.3     1  UNL1       -0.4502
     23 C          63.3839   84.2485   10.5024 C.ar    1  UNL1        0.0753
     24 C          63.2760   84.4860    9.0253 C.ar    1  UNL1        0.1036
     25 N          62.6914   85.7687    8.5126 N.ar    1  UNL1       -0.2390
     26 C          62.2146   86.8139    9.4771 C.ar    1  UNL1        0.1362
     27 C          62.3225   86.5764   10.9542 C.ar    1  UNL1        0.1646
     28 C          62.9071   85.2937   11.4669 C.ar    1  UNL1        0.0452
     29 N          64.8821   82.9805   12.2046 N.am    1  UNL1       -0.3253
     30 C          63.9685   82.9658   11.0151 C.2     1  UNL1        0.2444
     31 O          63.6395   81.6683   10.3382 O.2     1  UNL1       -0.2703
     32 H          65.2658   82.1386   12.5411 H       1  UNL1        0.1453
     33 H          65.0980   83.8321   12.6489 H       1  UNL1        0.1453
@<TRIPOS>BOND
     1    29    30   am
     2    30    31    2
     3    30    23    1
     4    23    24   ar
     5    24    25   ar
     6    25    26   ar
     7    26    27   ar
     8    27    22    1
     9    22     1    1
    10     1     2   ar
    11     2     3    1
    12     2     4   ar
    13     4     5   ar
    14     5     9    1
    15     9    11    1
    16    11    12    2
    17    11    13    2
    18    11    14    1
    19    14    15   ar
    20    15    16   ar
    21    16    17   ar
    22    17    18    1
    23    17    19   ar
    24    19    20   ar
    25    20    21    1
    26     5     6   ar
    27     6     7   ar
    28     7     8    1
    29    27    28   ar
    30    28    23   ar
    31     7     1   ar
    32    20    14   ar
    33    29    32    1
    34    29    33    1
    35     9    10    1
@<TRIPOS>MOLECULE
*****
 33 35 0 0 0
SMALL
GASTEIGER

@<TRIPOS>ATOM
      1 C          63.5473   89.7864   14.3511 C.ar    1  UNL1        0.1663
      2 C          63.5531   89.4974   15.8230 C.ar    1  UNL1        0.0942
      3 CL         63.5525   90.6276   16.8093 Cl      1  UNL1       -0.0790
      4 C          63.5596   88.0782   16.3087 C.ar    1  UNL1        0.0304
      5 C          63.5602   86.9480   15.3224 C.ar    1  UNL1        0.0667
      6 C          63.5543   87.2370   13.8506 C.ar    1  UNL1        0.0304
      7 C          63.5479   88.6562   13.3649 C.ar    1  UNL1        0.0942
      8 CL         63.5420   88.9452   11.8930 Cl      1  UNL1       -0.0790
      9 N          63.5666   85.5289   15.8081 N.pl3   1  UNL1       -0.2149
     10 H          63.6769   85.3374   16.7675 H       1  UNL1        0.1737
     11 S          63.4050   84.4014   14.8320 S.O2    1  UNL1        0.0744
     12 O          61.9195   84.4368   15.0370 O.2     1  UNL1       -0.1499
     13 O          64.8905   84.3659   14.6271 O.2     1  UNL1       -0.1499
     14 C          63.2434   83.2739   13.8560 C.ar    1  UNL1        0.1357
     15 C          63.3321   81.8534   14.3296 C.ar    1  UNL1        0.0219
     16 C          63.1705   80.7259   13.3535 C.ar    1  UNL1        0.0128
     17 C          62.9203   81.0189   11.9039 C.ar    1  UNL1        0.0586
     18 CL         62.7587   79.8915   10.9278 Cl      1  UNL1       -0.0822
     19 C          62.8316   82.4395   11.4302 C.ar    1  UNL1        0.0241
     20 C          62.9932   83.5670   12.4063 C.ar    1  UNL1        0.0773
     21 CL         62.9046   84.9874   11.9327 Cl      1  UNL1       -0.0808
     22 O          63.5408   91.2056   13.8655 O.3     1  UNL1       -0.4502
     23 C          67.2942   92.4448   13.5096 C.ar    1  UNL1        0.0753
     24 C          67.2778   93.0024   12.1172 C.ar    1  UNL1        0.1036
     25 N          66.0158   92.9610   11.3076 N.ar    1  UNL1       -0.2390
     26 C          64.7701   92.3621   11.8903 C.ar    1  UNL1        0.1362
     27 C          64.7865   91.8045   13.2827 C.ar    1  UNL1        0.1646
     28 C          66.0486   91.8458   14.0923 C.ar    1  UNL1        0.0452
     29 N          69.8645   92.1107   13.6887 N.am    1  UNL1       -0.3253
     30 C          68.5563   92.4861   14.3193 C.2     1  UNL1        0.2444
     31 O          68.5101   92.9028   15.7595 O.2     1  UNL1       -0.2703
     32 H          70.6928   92.1378   14.2201 H       1  UNL1        0.1453
     33 H          69.8948   91.8372   12.7435 H       1  UNL1        0.1453
@<TRIPOS>BOND
     1    29    30   am
     2    30    31    2
     3    30    23    1
     4    23    24   ar
     5    24    25   ar
     6    25    26   ar
     7    26    27   ar
     8    27    22    1
     9    22     1    1
    10     1     2   ar
    11     2     3    1
    12     2     4   ar
    13     4     5   ar
    14     5     9    1
    15     9    11    1
    16    11    12    2
    17    11    13    2
    18    11    14    1
    19    14    15   ar
    20    15    16   ar
    21    16    17   ar
    22    17    18    1
    23    17    19   ar
    24    19    20   ar
    25    20    21    1
    26     5     6   ar
    27     6     7   ar
    28     7     8    1
    29    27    28   ar
    30    28    23   ar
    31     7     1   ar
    32    20    14   ar
    33    29    32    1
    34    29    33    1
    35     9    10    1
@<TRIPOS>MOLECULE
*****
 33 35 0 0 0
SMALL
GASTEIGER

@<TRIPOS>ATOM
      1 C          63.8739   90.3217   13.1434 C.ar    1  UNL1        0.1663
      2 C          64.3448   90.0458   14.5406 C.ar    1  UNL1        0.0942
      3 CL         64.8183   91.1734   15.4090 Cl      1  UNL1       -0.0790
      4 C          64.3422   88.6420   15.0695 C.ar    1  UNL1        0.0304
      5 C          63.8687   87.5143   14.2011 C.ar    1  UNL1        0.0667
      6 C          63.3978   87.7903   12.8039 C.ar    1  UNL1        0.0304
      7 C          63.4004   89.1939   12.2751 C.ar    1  UNL1        0.0942
      8 CL         62.9295   89.4699   10.8779 Cl      1  UNL1       -0.0790
      9 N          63.8661   86.1107   14.7299 N.pl3   1  UNL1       -0.2149
     10 H          63.9695   85.9482   15.6954 H       1  UNL1        0.1737
     11 S          63.7059   84.9545   13.7878 S.O2    1  UNL1        0.0744
     12 O          65.1769   84.6759   13.8796 O.2     1  UNL1       -0.1499
     13 O          62.2349   85.2332   13.6959 O.2     1  UNL1       -0.1499
     14 C          63.5457   83.7984   12.8456 C.ar    1  UNL1        0.1357
     15 C          64.0724   83.8942   11.4444 C.ar    1  UNL1        0.0219
     16 C          63.9123   82.7380   10.5023 C.ar    1  UNL1        0.0128
     17 C          63.2254   81.4861   10.9613 C.ar    1  UNL1        0.0586
     18 CL         63.0652   80.3299   10.0191 Cl      1  UNL1       -0.0822
     19 C          62.6987   81.3902   12.3625 C.ar    1  UNL1        0.0241
     20 C          62.8588   82.5464   13.3047 C.ar    1  UNL1        0.0773
     21 CL         62.3321   82.4505   14.7059 Cl      1  UNL1       -0.0808
     22 O          63.8765   91.7254   12.6146 O.3     1  UNL1       -0.4502
     23 C          66.2649   93.9706   10.3776 C.ar    1  UNL1        0.0753
     24 C          67.6083   93.4246   10.7609 C.ar    1  UNL1        0.1036
     25 N          67.7078   92.3121   11.7622 N.ar    1  UNL1       -0.2390
     26 C          66.4639   91.7457   12.3801 C.ar    1  UNL1        0.1362
     27 C          65.1205   92.2918   11.9967 C.ar    1  UNL1        0.1646
     28 C          65.0210   93.4042   10.9955 C.ar    1  UNL1        0.0452
     29 N          66.8915   94.9815    8.0677 N.am    1  UNL1       -0.3253
     30 C          66.1654   95.0831    9.3763 C.2     1  UNL1        0.2444
     31 O          65.3399   96.2972    9.6837 O.2     1  UNL1       -0.2703
     32 H          66.8261   95.7117    7.4106 H       1  UNL1        0.1453
     33 H          67.4333   94.1847    7.8659 H       1  UNL1        0.1453
@<TRIPOS>BOND
     1    29    30   am
     2    30    31    2
     3    30    23    1
     4    23    24   ar
     5    24    25   ar
     6    25    26   ar
     7    26    27   ar
     8    27    22    1
     9    22     1    1
    10     1     2   ar
    11     2     3    1
    12     2     4   ar
    13     4     5   ar
    14     5     9    1
    15     9    11    1
    16    11    12    2
    17    11    13    2
    18    11    14    1
    19    14    15   ar
    20    15    16   ar
    21    16    17   ar
    22    17    18    1
    23    17    19   ar
    24    19    20   ar
    25    20    21    1
    26     5     6   ar
    27     6     7   ar
    28     7     8    1
    29    27    28   ar
    30    28    23   ar
    31     7     1   ar
    32    20    14   ar
    33    29    32    1
    34    29    33    1
    35     9    10    1
@<TRIPOS>MOLECULE
*****
 33 35 0 0 0
SMALL
GASTEIGER

@<TRIPOS>ATOM
      1 C          62.0024   86.9280   10.8566 C.ar    1  UNL1        0.1663
      2 C          62.8565   87.3729   12.0067 C.ar    1  UNL1        0.0942
      3 CL         63.3145   86.3766   13.0302 Cl      1  UNL1       -0.0790
      4 C          63.2524   88.8142   12.1333 C.ar    1  UNL1        0.0304
      5 C          62.7944   89.8105   11.1098 C.ar    1  UNL1        0.0667
      6 C          61.9403   89.3656    9.9597 C.ar    1  UNL1        0.0304
      7 C          61.5444   87.9243    9.8331 C.ar    1  UNL1        0.0942
      8 CL         60.6904   87.4794    8.6830 Cl      1  UNL1       -0.0790
      9 N          63.1903   91.2517   11.2364 N.pl3   1  UNL1       -0.2149
     10 H          62.7215   91.9390   10.7101 H       1  UNL1        0.1737
     11 S          64.3006   91.6457   12.1649 S.O2    1  UNL1        0.0744
     12 O          65.2436   91.7302   11.0014 O.2     1  UNL1       -0.1499
     13 O          63.3576   91.5612   13.3284 O.2     1  UNL1       -0.1499
     14 C          65.4109   92.0397   13.0933 C.ar    1  UNL1        0.1357
     15 C          65.8074   91.1290   14.2173 C.ar    1  UNL1        0.0219
     16 C          66.9177   91.5230   15.1458 C.ar    1  UNL1        0.0128
     17 C          67.6315   92.8277   14.9503 C.ar    1  UNL1        0.0586
     18 CL         68.7417   93.2216   15.8787 Cl      1  UNL1       -0.0822
     19 C          67.2350   93.7384   13.8262 C.ar    1  UNL1        0.0241
     20 C          66.1247   93.3444   12.8978 C.ar    1  UNL1        0.0773
     21 CL         65.7282   94.2551   11.7738 Cl      1  UNL1       -0.0808
     22 O          61.6065   85.4868   10.7300 O.3     1  UNL1       -0.4502
     23 C          63.4291   82.6172   12.7779 C.ar    1  UNL1        0.0753
     24 C          64.5288   82.2457   11.8279 C.ar    1  UNL1        0.1036
     25 N          64.6544   82.9544   10.5119 N.ar    1  UNL1       -0.2390
     26 C          63.6803   84.0348   10.1459 C.ar    1  UNL1        0.1362
     27 C          62.5806   84.4064   11.0960 C.ar    1  UNL1        0.1646
     28 C          62.4550   83.6976   12.4120 C.ar    1  UNL1        0.0452
     29 N          62.7166   82.6207   15.2764 N.am    1  UNL1       -0.3253
     30 C          63.3035   81.9084   14.0939 C.2     1  UNL1        0.2444
     31 O          63.7647   80.4874   14.2275 O.2     1  UNL1       -0.2703
     32 H          62.6342   82.1555   16.1401 H       1  UNL1        0.1453
     33 H          62.4139   83.5534   15.1888 H       1  UNL1        0.1453
@<TRIPOS>BOND
     1    29    30   am
     2    30    31    2
     3    30    23    1
     4    23    24   ar
     5    24    25   ar
     6    25    26   ar
     7    26    27   ar
     8    27    22    1
     9    22     1    1
    10     1     2   ar
    11     2     3    1
    12     2     4   ar
    13     4     5   ar
    14     5     9    1
    15     9    11    1
    16    11    12    2
    17    11    13    2
    18    11    14    1
    19    14    15   ar
    20    15    16   ar
    21    16    17   ar
    22    17    18    1
    23    17    19   ar
    24    19    20   ar
    25    20    21    1
    26     5     6   ar
    27     6     7   ar
    28     7     8    1
    29    27    28   ar
    30    28    23   ar
    31     7     1   ar
    32    20    14   ar
    33    29    32    1
    34    29    33    1
    35     9    10    1
@<TRIPOS>MOLECULE
*****
 33 35 0 0 0
SMALL
GASTEIGER

@<TRIPOS>ATOM
      1 C          63.4716   89.4779   14.5842 C.ar    1  UNL1        0.1663
      2 C          63.4719   89.0358   16.0176 C.ar    1  UNL1        0.0942
      3 CL         63.3529   90.0508   17.1156 Cl      1  UNL1       -0.0790
      4 C          63.5913   87.5786   16.3530 C.ar    1  UNL1        0.0304
      5 C          63.7103   86.5636   15.2551 C.ar    1  UNL1        0.0667
      6 C          63.7100   87.0057   13.8217 C.ar    1  UNL1        0.0304
      7 C          63.5906   88.4628   13.4863 C.ar    1  UNL1        0.0942
      8 CL         63.5903   88.9049   12.0529 Cl      1  UNL1       -0.0790
      9 N          63.8297   85.1065   15.5905 N.pl3   1  UNL1       -0.2149
     10 H          64.0517   84.8293   16.5087 H       1  UNL1        0.1737
     11 S          63.6109   84.0717   14.5269 S.O2    1  UNL1        0.0744
     12 O          65.0772   84.0863   14.2110 O.2     1  UNL1       -0.1499
     13 O          62.1446   84.0570   14.8428 O.2     1  UNL1       -0.1499
     14 C          63.3921   83.0368   13.4633 C.ar    1  UNL1        0.1357
     15 C          63.3942   81.5804   13.8222 C.ar    1  UNL1        0.0219
     16 C          63.1754   80.5456   12.7586 C.ar    1  UNL1        0.0128
     17 C          62.9545   80.9671   11.3361 C.ar    1  UNL1        0.0586
     18 CL         62.7357   79.9323   10.2725 Cl      1  UNL1       -0.0822
     19 C          62.9524   82.4236   10.9772 C.ar    1  UNL1        0.0241
     20 C          63.1712   83.4585   12.0408 C.ar    1  UNL1        0.0773
     21 CL         63.1691   84.9149   11.6819 Cl      1  UNL1       -0.0808
     22 O          63.3522   90.9350   14.2488 O.3     1  UNL1       -0.4502
     23 C          66.0777   92.9200   12.1556 C.ar    1  UNL1        0.0753
     24 C          67.0322   93.3208   13.2411 C.ar    1  UNL1        0.1036
     25 N          66.7601   92.9263   14.6625 N.ar    1  UNL1       -0.2390
     26 C          65.5334   92.1310   14.9984 C.ar    1  UNL1        0.1362
     27 C          64.5789   91.7303   13.9129 C.ar    1  UNL1        0.1646
     28 C          64.8511   92.1248   12.4915 C.ar    1  UNL1        0.0452
     29 N          65.5428   94.4025   10.0902 N.am    1  UNL1       -0.3253
     30 C          66.3499   93.3145   10.7342 C.2     1  UNL1        0.2444
     31 O          67.4290   92.6209    9.9569 O.2     1  UNL1       -0.2703
     32 H          65.7214   94.6614    9.1573 H       1  UNL1        0.1453
     33 H          64.8345   94.8577   10.6004 H       1  UNL1        0.1453
@<TRIPOS>BOND
     1    29    30   am
     2    30    31    2
     3    30    23    1
     4    23    24   ar
     5    24    25   ar
     6    25    26   ar
     7    26    27   ar
     8    27    22    1
     9    22     1    1
    10     1     2   ar
    11     2     3    1
    12     2     4   ar
    13     4     5   ar
    14     5     9    1
    15     9    11    1
    16    11    12    2
    17    11    13    2
    18    11    14    1
    19    14    15   ar
    20    15    16   ar
    21    16    17   ar
    22    17    18    1
    23    17    19   ar
    24    19    20   ar
    25    20    21    1
    26     5     6   ar
    27     6     7   ar
    28     7     8    1
    29    27    28   ar
    30    28    23   ar
    31     7     1   ar
    32    20    14   ar
    33    29    32    1
    34    29    33    1
    35     9    10    1
@<TRIPOS>MOLECULE
*****
 33 35 0 0 0
SMALL
GASTEIGER

@<TRIPOS>ATOM
      1 C          64.4807   91.7021   12.5001 C.ar    1  UNL1        0.1663
      2 C          63.8755   91.4966   11.1431 C.ar    1  UNL1        0.0942
      3 CL         64.2722   92.3862   10.0024 Cl      1  UNL1       -0.0790
      4 C          62.8735   90.4014   10.9267 C.ar    1  UNL1        0.0304
      5 C          62.4768   89.5118   12.0674 C.ar    1  UNL1        0.0667
      6 C          63.0820   89.7173   13.4244 C.ar    1  UNL1        0.0304
      7 C          64.0839   90.8125   13.6408 C.ar    1  UNL1        0.0942
      8 CL         64.6891   91.0180   14.9978 Cl      1  UNL1       -0.0790
      9 N          61.4750   88.4167   11.8511 N.pl3   1  UNL1       -0.2149
     10 H          60.5116   88.6154   11.8936 H       1  UNL1        0.1737
     11 S          61.9407   87.0188   11.5700 S.O2    1  UNL1        0.0744
     12 O          63.2223   87.2996   12.2971 O.2     1  UNL1       -0.1499
     13 O          60.6592   86.7380   10.8429 O.2     1  UNL1       -0.1499
     14 C          62.4065   85.6209   11.2889 C.ar    1  UNL1        0.1357
     15 C          62.5433   84.6359   12.4118 C.ar    1  UNL1        0.0219
     16 C          63.0091   83.2381   12.1308 C.ar    1  UNL1        0.0128
     17 C          63.3381   82.8252   10.7268 C.ar    1  UNL1        0.0586
     18 CL         63.8039   81.4273   10.4457 Cl      1  UNL1       -0.0822
     19 C          63.2013   83.8102    9.6038 C.ar    1  UNL1        0.0241
     20 C          62.7355   85.2081    9.8848 C.ar    1  UNL1        0.0773
     21 CL         62.5987   86.1931    8.7619 Cl      1  UNL1       -0.0808
     22 O          65.4826   92.7973   12.7164 O.3     1  UNL1       -0.4502
     23 C          66.7007   95.0198    9.6625 C.ar    1  UNL1        0.0753
     24 C          67.9553   94.2979    9.2692 C.ar    1  UNL1        0.1036
     25 N          68.3857   93.0758   10.0249 N.ar    1  UNL1       -0.2390
     26 C          67.5615   92.5756   11.1740 C.ar    1  UNL1        0.1362
     27 C          66.3069   93.2975   11.5673 C.ar    1  UNL1        0.1646
     28 C          65.8765   94.5196   10.8115 C.ar    1  UNL1        0.0452
     29 N          64.9252   96.8514    9.1697 N.am    1  UNL1       -0.3253
     30 C          66.2703   96.2419    8.9067 C.2     1  UNL1        0.2444
     31 O          67.1850   96.8545    7.8879 O.2     1  UNL1       -0.2703
     32 H          64.6428   97.6535    8.6737 H       1  UNL1        0.1453
     33 H          64.3249   96.4494    9.8384 H       1  UNL1        0.1453
@<TRIPOS>BOND
     1    29    30   am
     2    30    31    2
     3    30    23    1
     4    23    24   ar
     5    24    25   ar
     6    25    26   ar
     7    26    27   ar
     8    27    22    1
     9    22     1    1
    10     1     2   ar
    11     2     3    1
    12     2     4   ar
    13     4     5   ar
    14     5     9    1
    15     9    11    1
    16    11    12    2
    17    11    13    2
    18    11    14    1
    19    14    15   ar
    20    15    16   ar
    21    16    17   ar
    22    17    18    1
    23    17    19   ar
    24    19    20   ar
    25    20    21    1
    26     5     6   ar
    27     6     7   ar
    28     7     8    1
    29    27    28   ar
    30    28    23   ar
    31     7     1   ar
    32    20    14   ar
    33    29    32    1
    34    29    33    1
    35     9    10    1
@<TRIPOS>MOLECULE
*****
 33 35 0 0 0
SMALL
GASTEIGER

@<TRIPOS>ATOM
      1 C          63.5298   90.4161   11.9548 C.ar    1  UNL1        0.1663
      2 C          63.6191   89.2300   12.8686 C.ar    1  UNL1        0.0942
      3 CL         64.2628   89.3684   14.2164 Cl      1  UNL1       -0.0790
      4 C          63.0646   87.9055   12.4347 C.ar    1  UNL1        0.0304
      5 C          62.4209   87.7671   11.0869 C.ar    1  UNL1        0.0667
      6 C          62.3317   88.9532   10.1731 C.ar    1  UNL1        0.0304
      7 C          62.8861   90.2777   10.6069 C.ar    1  UNL1        0.0942
      8 CL         62.7969   91.4638    9.6931 Cl      1  UNL1       -0.0790
      9 N          61.8665   86.4426   10.6531 N.pl3   1  UNL1       -0.2149
     10 H          61.2166   86.3990    9.9148 H       1  UNL1        0.1737
     11 S          62.3021   85.1845   11.3440 S.O2    1  UNL1        0.0744
     12 O          61.4317   85.5271   12.5166 O.2     1  UNL1       -0.1499
     13 O          63.1726   84.8420   10.1714 O.2     1  UNL1       -0.1499
     14 C          62.7378   83.9264   12.0350 C.ar    1  UNL1        0.1357
     15 C          62.3529   82.5902   11.4727 C.ar    1  UNL1        0.0219
     16 C          62.7885   81.3321   12.1637 C.ar    1  UNL1        0.0128
     17 C          63.6090   81.4103   13.4169 C.ar    1  UNL1        0.0586
     18 CL         64.0447   80.1522   14.1078 Cl      1  UNL1       -0.0822
     19 C          63.9940   82.7466   13.9792 C.ar    1  UNL1        0.0241
     20 C          63.5583   84.0047   13.2883 C.ar    1  UNL1        0.0773
     21 CL         63.9432   85.3410   13.8505 Cl      1  UNL1       -0.0808
     22 O          64.0843   91.7406   12.3886 O.3     1  UNL1       -0.4502
     23 C          67.4347   92.7885   10.5374 C.ar    1  UNL1        0.0753
     24 C          68.4188   92.7108   11.6667 C.ar    1  UNL1        0.1036
     25 N          67.9581   92.3097   13.0367 N.ar    1  UNL1       -0.2390
     26 C          66.5133   91.9863   13.2774 C.ar    1  UNL1        0.1362
     27 C          65.5292   92.0640   12.1480 C.ar    1  UNL1        0.1646
     28 C          65.9899   92.4651   10.7780 C.ar    1  UNL1        0.0452
     29 N          67.5969   94.5649    8.6485 N.am    1  UNL1       -0.3253
     30 C          67.8954   93.1895    9.1674 C.2     1  UNL1        0.2444
     31 O          68.6545   92.2153    8.3163 O.2     1  UNL1       -0.2703
     32 H          67.8993   94.8281    7.7493 H       1  UNL1        0.1453
     33 H          67.0987   95.2044    9.2071 H       1  UNL1        0.1453
@<TRIPOS>BOND
     1    29    30   am
     2    30    31    2
     3    30    23    1
     4    23    24   ar
     5    24    25   ar
     6    25    26   ar
     7    26    27   ar
     8    27    22    1
     9    22     1    1
    10     1     2   ar
    11     2     3    1
    12     2     4   ar
    13     4     5   ar
    14     5     9    1
    15     9    11    1
    16    11    12    2
    17    11    13    2
    18    11    14    1
    19    14    15   ar
    20    15    16   ar
    21    16    17   ar
    22    17    18    1
    23    17    19   ar
    24    19    20   ar
    25    20    21    1
    26     5     6   ar
    27     6     7   ar
    28     7     8    1
    29    27    28   ar
    30    28    23   ar
    31     7     1   ar
    32    20    14   ar
    33    29    32    1
    34    29    33    1
    35     9    10    1
@<TRIPOS>MOLECULE
*****
 33 35 0 0 0
SMALL
GASTEIGER

@<TRIPOS>ATOM
      1 C          63.3509   90.4428   11.9647 C.ar    1  UNL1        0.1663
      2 C          62.8581   90.3150   10.5538 C.ar    1  UNL1        0.0942
      3 CL         62.7973   91.5240    9.6681 Cl      1  UNL1       -0.0790
      4 C          62.4260   88.9780   10.0285 C.ar    1  UNL1        0.0304
      5 C          62.4868   87.7689   10.9142 C.ar    1  UNL1        0.0667
      6 C          62.9796   87.8968   12.3251 C.ar    1  UNL1        0.0304
      7 C          63.4117   89.2337   12.8504 C.ar    1  UNL1        0.0942
      8 CL         63.9045   89.3615   14.2613 Cl      1  UNL1       -0.0790
      9 N          62.0547   86.4320   10.3889 N.pl3   1  UNL1       -0.2149
     10 H          61.5289   86.3759    9.5585 H       1  UNL1        0.1737
     11 S          62.4237   85.1805   11.1289 S.O2    1  UNL1        0.0744
     12 O          61.4871   85.5598   12.2375 O.2     1  UNL1       -0.1499
     13 O          63.3603   84.8012   10.0203 O.2     1  UNL1       -0.1499
     14 C          62.7928   83.9290   11.8689 C.ar    1  UNL1        0.1357
     15 C          62.4117   82.5890   11.3129 C.ar    1  UNL1        0.0219
     16 C          62.7808   81.3375   12.0529 C.ar    1  UNL1        0.0128
     17 C          63.5308   81.4260   13.3488 C.ar    1  UNL1        0.0586
     18 CL         63.8999   80.1745   14.0888 Cl      1  UNL1       -0.0822
     19 C          63.9119   82.7661   13.9049 C.ar    1  UNL1        0.0241
     20 C          63.5429   84.0176   13.1649 C.ar    1  UNL1        0.0773
     21 CL         63.9239   85.3576   13.7209 Cl      1  UNL1       -0.0808
     22 O          63.7830   91.7797   12.4900 O.3     1  UNL1       -0.4502
     23 C          67.2149   92.4141   14.3793 C.ar    1  UNL1        0.0753
     24 C          68.1456   92.6078   13.2191 C.ar    1  UNL1        0.1036
     25 N          67.6222   92.5255   11.8158 N.ar    1  UNL1       -0.2390
     26 C          66.1680   92.2494   11.5728 C.ar    1  UNL1        0.1362
     27 C          65.2373   92.0557   12.7330 C.ar    1  UNL1        0.1646
     28 C          65.7607   92.1381   14.1363 C.ar    1  UNL1        0.0452
     29 N          69.1907   92.2414   16.0575 N.am    1  UNL1       -0.3253
     30 C          67.7384   92.4964   15.7826 C.2     1  UNL1        0.2444
     31 O          66.8095   92.8336   16.9110 O.2     1  UNL1       -0.2703
     32 H          69.5343   92.2955   16.9786 H       1  UNL1        0.1453
     33 H          69.8004   92.0201   15.3169 H       1  UNL1        0.1453
@<TRIPOS>BOND
     1    29    30   am
     2    30    31    2
     3    30    23    1
     4    23    24   ar
     5    24    25   ar
     6    25    26   ar
     7    26    27   ar
     8    27    22    1
     9    22     1    1
    10     1     2   ar
    11     2     3    1
    12     2     4   ar
    13     4     5   ar
    14     5     9    1
    15     9    11    1
    16    11    12    2
    17    11    13    2
    18    11    14    1
    19    14    15   ar
    20    15    16   ar
    21    16    17   ar
    22    17    18    1
    23    17    19   ar
    24    19    20   ar
    25    20    21    1
    26     5     6   ar
    27     6     7   ar
    28     7     8    1
    29    27    28   ar
    30    28    23   ar
    31     7     1   ar
    32    20    14   ar
    33    29    32    1
    34    29    33    1
    35     9    10    1
