@<TRIPOS>MOLECULE
*****
 40 43 0 0 0
SMALL
GASTEIGER

@<TRIPOS>ATOM
      1 N          62.9754   90.6626   11.6568 N.am    1  UNL1       -0.2438
      2 C          63.3624   91.4253   10.4246 C.3     1  UNL1        0.1009
      3 C          64.5458   92.3466   10.4536 C.3     1  UNL1        0.0661
      4 C          65.3421   92.5052   11.7148 C.3     1  UNL1        0.1591
      5 O          64.9551   91.7424   12.9471 O.3     1  UNL1       -0.4375
      6 C          63.7717   90.8211   12.9181 C.2     1  UNL1        0.4051
      7 O          63.3847   90.0583   14.1503 O.2     1  UNL1       -0.2262
      8 C          66.0968   93.4352   10.8116 C.ar    1  UNL1        0.0139
      9 C          65.7664   94.8983   10.7966 C.ar    1  UNL1        0.0014
     10 C          66.5210   95.8283    9.8934 C.ar    1  UNL1        0.0294
     11 C          67.6060   95.2951    9.0054 C.ar    1  UNL1        0.1401
     12 F          68.3606   96.2251    8.1022 F       1  UNL1       -0.2042
     13 C          67.9363   93.8320    9.0204 C.ar    1  UNL1        0.0294
     14 C          67.1817   92.9020    9.9236 C.ar    1  UNL1        0.0014
     15 C          60.4027   90.3057   11.5937 C.3     1  UNL1        0.0265
     16 C          61.7920   89.7412   11.6278 C.3     1  UNL1        0.1011
     17 C          61.9980   88.2554   11.6329 C.ar    1  UNL1       -0.0042
     18 C          61.1254   87.3744   10.7889 C.ar    1  UNL1       -0.0027
     19 C          61.3314   85.8886   10.7941 C.ar    1  UNL1       -0.0002
     20 C          62.4100   85.2839   11.6432 C.ar    1  UNL1        0.0021
     21 C          63.2826   86.1650   12.4872 C.ar    1  UNL1       -0.0002
     22 C          63.0766   87.6507   12.4820 C.ar    1  UNL1       -0.0027
     23 C          62.6160   83.7981   11.6483 C.ar    1  UNL1        0.0276
     24 C          62.1768   82.9841   12.8292 C.ar    1  UNL1        0.0045
     25 C          62.3828   81.4983   12.8343 C.ar    1  UNL1        0.0298
     26 C          63.0280   80.8265   11.6585 C.ar    1  UNL1        0.1424
     27 F          63.2340   79.3408   11.6635 F       1  UNL1       -0.2041
     28 C          63.4672   81.6406   10.4776 C.ar    1  UNL1        0.0592
     29 C          63.2612   83.1263   10.4725 C.ar    1  UNL1        0.1423
     30 F          63.7004   83.9404    9.2916 F       1  UNL1       -0.2041
     31 C          66.4006   92.9867   12.6624 C.3     1  UNL1        0.0634
     32 C          67.3302   92.0041   13.3106 C.3     1  UNL1        0.0965
     33 N          67.4602   91.9677   14.8045 N.3     1  UNL1       -0.1695
     34 H          68.0049   91.1359   15.0325 H       1  UNL1        0.1499
     35 S          68.0980   93.1152   15.5299 S.O2    1  UNL1        0.0927
     36 N          68.7360   94.2628   16.2553 N.3     1  UNL1       -0.1934
     37 O          66.8910   93.2278   16.4133 O.2     1  UNL1       -0.1415
     38 O          69.3051   93.0026   14.6465 O.2     1  UNL1       -0.1415
     39 H          68.1067   94.5951   16.9861 H       1  UNL1        0.1453
     40 H          68.9225   95.0195   15.5973 H       1  UNL1        0.1453
@<TRIPOS>BOND
     1    16    15    1
     2    16    17    1
     3    17    18   ar
     4    18    19   ar
     5    19    20   ar
     6    20    23    1
     7    23    24   ar
     8    24    25   ar
     9    25    26   ar
    10    26    27    1
    11    26    28   ar
    12    28    29   ar
    13    29    30    1
    14    20    21   ar
    15    21    22   ar
    16    16     1    1
    17     1     2    1
    18     2     3    1
    19     3     4    1
    20     4    31    1
    21    31    32    1
    22    32    33    1
    23    33    35    1
    24    35    36    1
    25    35    37    2
    26    35    38    2
    27     4     8    1
    28     8     9   ar
    29     9    10   ar
    30    10    11   ar
    31    11    12    1
    32    11    13   ar
    33    13    14   ar
    34     4     5    1
    35     5     6    1
    36     6     7    2
    37    22    17   ar
    38     6     1   am
    39    29    23   ar
    40    14     8   ar
    41    33    34    1
    42    36    39    1
    43    36    40    1
@<TRIPOS>MOLECULE
*****
 40 43 0 0 0
SMALL
GASTEIGER

@<TRIPOS>ATOM
      1 N          63.2563   90.3315   12.0137 N.am    1  UNL1       -0.2438
      2 C          63.9940   90.1839   13.3113 C.3     1  UNL1        0.1009
      3 C          65.1862   91.0477   13.5988 C.3     1  UNL1        0.0661
      4 C          65.6407   92.0590   12.5886 C.3     1  UNL1        0.1591
      5 O          64.9030   92.2067   11.2909 O.3     1  UNL1       -0.4375
      6 C          63.7108   91.3429   11.0034 C.2     1  UNL1        0.4051
      7 O          62.9731   91.4905    9.7057 O.2     1  UNL1       -0.2262
      8 C          66.6591   92.2906   13.6654 C.ar    1  UNL1        0.0139
      9 C          66.2342   92.8454   14.9927 C.ar    1  UNL1        0.0014
     10 C          67.2526   93.0769   16.0694 C.ar    1  UNL1        0.0294
     11 C          68.6957   92.7537   15.8188 C.ar    1  UNL1        0.1401
     12 F          69.7141   92.9853   16.8955 F       1  UNL1       -0.2042
     13 C          69.1206   92.1989   14.4915 C.ar    1  UNL1        0.0294
     14 C          68.1022   91.9674   13.4147 C.ar    1  UNL1        0.0014
     15 C          60.7322   90.0974   11.4445 C.3     1  UNL1        0.0265
     16 C          62.0642   89.4678   11.7262 C.3     1  UNL1        0.1011
     17 C          62.2040   87.9742   11.7204 C.ar    1  UNL1       -0.0042
     18 C          63.1193   87.3028   12.7009 C.ar    1  UNL1       -0.0027
     19 C          63.2591   85.8094   12.6950 C.ar    1  UNL1       -0.0002
     20 C          62.4836   84.9874   11.7087 C.ar    1  UNL1        0.0021
     21 C          61.5683   85.6588   10.7282 C.ar    1  UNL1       -0.0002
     22 C          61.4285   87.1522   10.7340 C.ar    1  UNL1       -0.0027
     23 C          62.6234   83.4939   11.7029 C.ar    1  UNL1        0.0276
     24 C          62.1520   82.6919   12.8795 C.ar    1  UNL1        0.0045
     25 C          62.2918   81.1984   12.8737 C.ar    1  UNL1        0.0298
     26 C          62.9031   80.5069   11.6912 C.ar    1  UNL1        0.1424
     27 F          63.0429   79.0135   11.6854 F       1  UNL1       -0.2041
     28 C          63.3745   81.3090   10.5145 C.ar    1  UNL1        0.0592
     29 C          63.2347   82.8025   10.5204 C.ar    1  UNL1        0.1423
     30 F          63.7061   83.6045    9.3437 F       1  UNL1       -0.2041
     31 C          66.4489   93.1508   11.9523 C.3     1  UNL1        0.0634
     32 C          65.7938   94.1176   11.0110 C.3     1  UNL1        0.0965
     33 N          66.2807   94.2345    9.5970 N.3     1  UNL1       -0.1695
     34 H          65.4548   94.2157    8.9987 H       1  UNL1        0.1499
     35 S          67.0912   95.4255    9.1790 S.O2    1  UNL1        0.0927
     36 N          67.9018   96.6164    8.7610 N.3     1  UNL1       -0.1934
     37 O          65.8314   96.2192    8.9977 O.2     1  UNL1       -0.1415
     38 O          68.3509   94.6316    9.3604 O.2     1  UNL1       -0.1415
     39 H          67.2779   97.3953    8.5500 H       1  UNL1        0.1453
     40 H          68.4465   96.3826    7.9309 H       1  UNL1        0.1453
@<TRIPOS>BOND
     1    16    15    1
     2    16    17    1
     3    17    18   ar
     4    18    19   ar
     5    19    20   ar
     6    20    23    1
     7    23    24   ar
     8    24    25   ar
     9    25    26   ar
    10    26    27    1
    11    26    28   ar
    12    28    29   ar
    13    29    30    1
    14    20    21   ar
    15    21    22   ar
    16    16     1    1
    17     1     2    1
    18     2     3    1
    19     3     4    1
    20     4    31    1
    21    31    32    1
    22    32    33    1
    23    33    35    1
    24    35    36    1
    25    35    37    2
    26    35    38    2
    27     4     8    1
    28     8     9   ar
    29     9    10   ar
    30    10    11   ar
    31    11    12    1
    32    11    13   ar
    33    13    14   ar
    34     4     5    1
    35     5     6    1
    36     6     7    2
    37    22    17   ar
    38     6     1   am
    39    29    23   ar
    40    14     8   ar
    41    33    34    1
    42    36    39    1
    43    36    40    1
@<TRIPOS>MOLECULE
*****
 40 43 0 0 0
SMALL
GASTEIGER

@<TRIPOS>ATOM
      1 N          63.3988   90.2798   11.6264 N.am    1  UNL1       -0.2438
      2 C          64.1926   89.9012   12.8415 C.3     1  UNL1        0.1009
      3 C          65.2207   90.8458   13.3900 C.3     1  UNL1        0.0661
      4 C          65.4550   92.1689   12.7234 C.3     1  UNL1        0.1591
      5 O          64.6612   92.5475   11.5083 O.3     1  UNL1       -0.4375
      6 C          63.6331   91.6030   10.9598 C.2     1  UNL1        0.4051
      7 O          62.8392   91.9815    9.7447 O.2     1  UNL1       -0.2262
      8 C          66.4503   92.2609   13.8419 C.ar    1  UNL1        0.0139
      9 C          66.0103   92.7166   15.2017 C.ar    1  UNL1        0.0014
     10 C          67.0056   92.8086   16.3202 C.ar    1  UNL1        0.0294
     11 C          68.4407   92.4450   16.0789 C.ar    1  UNL1        0.1401
     12 F          69.4360   92.5370   17.1974 F       1  UNL1       -0.2042
     13 C          68.8806   91.9893   14.7192 C.ar    1  UNL1        0.0294
     14 C          67.8854   91.8973   13.6006 C.ar    1  UNL1        0.0014
     15 C          61.2863   89.8476   10.1772 C.3     1  UNL1        0.0265
     16 C          62.3707   89.3352   11.0780 C.3     1  UNL1        0.1011
     17 C          62.4271   87.8782   11.4303 C.ar    1  UNL1       -0.0042
     18 C          61.6795   86.8766   10.6009 C.ar    1  UNL1       -0.0027
     19 C          61.7360   85.4197   10.9533 C.ar    1  UNL1       -0.0002
     20 C          62.5400   84.9644   12.1349 C.ar    1  UNL1        0.0021
     21 C          63.2875   85.9660   12.9643 C.ar    1  UNL1       -0.0002
     22 C          63.2311   87.4229   12.6119 C.ar    1  UNL1       -0.0027
     23 C          62.5963   83.5074   12.4873 C.ar    1  UNL1        0.0276
     24 C          62.9635   82.4966   11.4416 C.ar    1  UNL1        0.0045
     25 C          63.0199   81.0396   11.7939 C.ar    1  UNL1        0.0298
     26 C          62.7091   80.5935   13.1919 C.ar    1  UNL1        0.1424
     27 F          62.7655   79.1366   13.5442 F       1  UNL1       -0.2041
     28 C          62.3420   81.6044   14.2376 C.ar    1  UNL1        0.0592
     29 C          62.2856   83.0613   13.8853 C.ar    1  UNL1        0.1423
     30 F          61.9185   84.0722   14.9310 F       1  UNL1       -0.2041
     31 C          66.0349   93.5240   12.4452 C.3     1  UNL1        0.0634
     32 C          66.9668   93.7174   11.2859 C.3     1  UNL1        0.0965
     33 N          66.8089   92.8832   10.0494 N.3     1  UNL1       -0.1695
     34 H          66.1508   93.3747    9.4446 H       1  UNL1        0.1499
     35 S          68.0067   92.5541    9.2087 S.O2    1  UNL1        0.0927
     36 N          69.2046   92.2251    8.3679 N.3     1  UNL1       -0.1934
     37 O          68.2593   91.3352   10.0455 O.2     1  UNL1       -0.1415
     38 O          67.7541   93.7731    8.3718 O.2     1  UNL1       -0.1415
     39 H          69.6381   91.3690    8.7138 H       1  UNL1        0.1453
     40 H          69.8764   92.9909    8.4187 H       1  UNL1        0.1453
@<TRIPOS>BOND
     1    16    15    1
     2    16    17    1
     3    17    18   ar
     4    18    19   ar
     5    19    20   ar
     6    20    23    1
     7    23    24   ar
     8    24    25   ar
     9    25    26   ar
    10    26    27    1
    11    26    28   ar
    12    28    29   ar
    13    29    30    1
    14    20    21   ar
    15    21    22   ar
    16    16     1    1
    17     1     2    1
    18     2     3    1
    19     3     4    1
    20     4    31    1
    21    31    32    1
    22    32    33    1
    23    33    35    1
    24    35    36    1
    25    35    37    2
    26    35    38    2
    27     4     8    1
    28     8     9   ar
    29     9    10   ar
    30    10    11   ar
    31    11    12    1
    32    11    13   ar
    33    13    14   ar
    34     4     5    1
    35     5     6    1
    36     6     7    2
    37    22    17   ar
    38     6     1   am
    39    29    23   ar
    40    14     8   ar
    41    33    34    1
    42    36    39    1
    43    36    40    1
@<TRIPOS>MOLECULE
*****
 40 43 0 0 0
SMALL
GASTEIGER

@<TRIPOS>ATOM
      1 N          62.0480   88.0837   11.1643 N.am    1  UNL1       -0.2438
      2 C          61.5917   88.1206    9.7359 C.3     1  UNL1        0.1009
      3 C          61.7771   86.9185    8.8580 C.3     1  UNL1        0.0661
      4 C          62.4189   85.6795    9.4085 C.3     1  UNL1        0.1591
      5 O          62.8752   85.6426   10.8370 O.3     1  UNL1       -0.4375
      6 C          62.6898   86.8447   11.7149 C.2     1  UNL1        0.4051
      7 O          63.1462   86.8078   13.1433 O.2     1  UNL1       -0.2262
      8 C          62.1534   85.2322    8.0016 C.ar    1  UNL1        0.0139
      9 C          63.2902   84.7930    7.1271 C.ar    1  UNL1        0.0014
     10 C          63.0247   84.3456    5.7202 C.ar    1  UNL1        0.0294
     11 C          61.6224   84.3375    5.1879 C.ar    1  UNL1        0.1401
     12 F          61.3569   83.8901    3.7809 F       1  UNL1       -0.2042
     13 C          60.4855   84.7766    6.0623 C.ar    1  UNL1        0.0294
     14 C          60.7510   85.2240    7.4693 C.ar    1  UNL1        0.0014
     15 C          60.4846   89.8159   12.3066 C.3     1  UNL1        0.0265
     16 C          61.8626   89.2858   12.0421 C.3     1  UNL1        0.1011
     17 C          63.0553   89.9577   12.6555 C.ar    1  UNL1       -0.0042
     18 C          63.5618   89.5105   13.9947 C.ar    1  UNL1       -0.0027
     19 C          64.7544   90.1824   14.6080 C.ar    1  UNL1       -0.0002
     20 C          65.4405   91.3015   13.8821 C.ar    1  UNL1        0.0021
     21 C          64.9341   91.7486   12.5429 C.ar    1  UNL1       -0.0002
     22 C          63.7414   91.0767   11.9296 C.ar    1  UNL1       -0.0027
     23 C          66.6332   91.9734   14.4955 C.ar    1  UNL1        0.0276
     24 C          67.9479   91.9732   13.7734 C.ar    1  UNL1        0.0045
     25 C          69.1406   92.6451   14.3867 C.ar    1  UNL1        0.0298
     26 C          69.0185   93.3171   15.7222 C.ar    1  UNL1        0.1424
     27 F          70.2111   93.9890   16.3356 F       1  UNL1       -0.2041
     28 C          67.7037   93.3172   16.4443 C.ar    1  UNL1        0.0592
     29 C          66.5111   92.6454   15.8310 C.ar    1  UNL1        0.1423
     30 F          65.1963   92.6454   16.5531 F       1  UNL1       -0.2041
     31 C          62.9684   84.2852    9.4705 C.3     1  UNL1        0.0634
     32 C          63.5974   83.7824   10.7360 C.3     1  UNL1        0.0965
     33 N          62.9650   82.6499   11.4893 N.3     1  UNL1       -0.1695
     34 H          63.2457   81.7898   11.0183 H       1  UNL1        0.1499
     35 S          63.2610   82.4614   12.9477 S.O2    1  UNL1        0.0927
     36 N          63.5569   82.2727   14.4061 N.3     1  UNL1       -0.1934
     37 O          64.3750   83.4611   12.8509 O.2     1  UNL1       -0.1415
     38 O          62.1469   81.4616   13.0445 O.2     1  UNL1       -0.1415
     39 H          64.3383   82.8709   14.6746 H       1  UNL1        0.1453
     40 H          63.7998   81.2975   14.5804 H       1  UNL1        0.1453
@<TRIPOS>BOND
     1    16    15    1
     2    16    17    1
     3    17    18   ar
     4    18    19   ar
     5    19    20   ar
     6    20    23    1
     7    23    24   ar
     8    24    25   ar
     9    25    26   ar
    10    26    27    1
    11    26    28   ar
    12    28    29   ar
    13    29    30    1
    14    20    21   ar
    15    21    22   ar
    16    16     1    1
    17     1     2    1
    18     2     3    1
    19     3     4    1
    20     4    31    1
    21    31    32    1
    22    32    33    1
    23    33    35    1
    24    35    36    1
    25    35    37    2
    26    35    38    2
    27     4     8    1
    28     8     9   ar
    29     9    10   ar
    30    10    11   ar
    31    11    12    1
    32    11    13   ar
    33    13    14   ar
    34     4     5    1
    35     5     6    1
    36     6     7    2
    37    22    17   ar
    38     6     1   am
    39    29    23   ar
    40    14     8   ar
    41    33    34    1
    42    36    39    1
    43    36    40    1
