@<TRIPOS>MOLECULE
*****
 34 37 0 0 0
SMALL
GASTEIGER

@<TRIPOS>ATOM
      1 C          64.1823   91.2114   12.0642 C.ar    1  UNL1        0.0007
      2 C          63.7407   91.8201   10.7663 C.ar    1  UNL1       -0.0025
      3 C          62.8130   91.0652    9.8610 C.ar    1  UNL1        0.0010
      4 C          62.3269   89.7015   10.2536 C.ar    1  UNL1        0.0146
      5 C          62.7685   89.0928   11.5516 C.ar    1  UNL1        0.0481
      6 C          63.6962   89.8477   12.4568 C.ar    1  UNL1        0.0121
      7 N          62.2824   87.7291   11.9442 N.pl3   1  UNL1       -0.3125
      8 H          61.7840   87.6072   12.7844 H       1  UNL1        0.1522
      9 C          62.5555   86.5512   11.0565 C.ar    1  UNL1        0.0513
     10 C          62.4819   86.7023    9.5660 C.ar    1  UNL1        0.0353
     11 C          62.7551   85.5244    8.6784 C.ar    1  UNL1        0.1001
     12 N          63.1019   84.1954    9.2813 N.ar    1  UNL1       -0.2437
     13 C          63.1755   84.0443   10.7719 C.ar    1  UNL1        0.0833
     14 C          63.5222   82.7153   11.3748 C.ar    1  UNL1        0.0305
     15 C          63.5959   82.5642   12.8653 C.ar    1  UNL1        0.0592
     16 CL         63.9426   81.2352   13.4683 Cl      1  UNL1       -0.0822
     17 C          63.3227   83.7422   13.7530 C.ar    1  UNL1        0.0115
     18 C          62.9759   85.0712   13.1501 C.ar    1  UNL1        0.0036
     19 C          62.9023   85.2222   11.6594 C.ar    1  UNL1        0.0312
     20 C          65.1100   91.9663   12.9695 C.3     1  UNL1        0.1412
     21 C          64.8755   91.9681   14.4510 C.ar    1  UNL1        0.1794
     22 N          63.5630   91.7274   15.1362 N.ar    1  UNL1       -0.1110
     23 N          63.7886   91.8215   16.6161 N.ar    1  UNL1       -0.0229
     24 N          65.2405   92.1204   16.8456 N.ar    1  UNL1       -0.0432
     25 N          65.9122   92.2110   15.5074 N.ar    1  UNL1       -0.2192
     26 C          67.3655   92.4947   15.2679 C.3     1  UNL1        0.0896
     27 C          67.4520   93.7014   15.3806 C.3     1  UNL1        0.0245
     28 C          67.6180   91.0302   15.0647 C.3     1  UNL1        0.0245
     29 C          68.8188   92.7785   15.0283 C.3     1  UNL1        0.0245
     30 N          66.2722   92.7194   12.3932 N.3     1  UNL1       -0.2643
     31 C          67.7928   92.1288   10.3711 C.3     1  UNL1        0.0188
     32 C          67.4402   91.9725   11.8206 C.3     1  UNL1        0.0728
     33 C          66.2664   94.2194   12.3894 C.3     1  UNL1        0.0728
     34 C          65.9434   94.9650   11.1286 C.3     1  UNL1        0.0188
@<TRIPOS>BOND
     1    31    32    1
     2    32    30    1
     3    30    33    1
     4    33    34    1
     5    30    20    1
     6    20     1    1
     7     1     2   ar
     8     2     3   ar
     9     3     4   ar
    10     4     5   ar
    11     5     7    1
    12     7     9    1
    13     9    10   ar
    14    10    11   ar
    15    11    12   ar
    16    12    13   ar
    17    13    14   ar
    18    14    15   ar
    19    15    16    1
    20    15    17   ar
    21    17    18   ar
    22    18    19   ar
    23     5     6   ar
    24    20    21    1
    25    21    22   ar
    26    22    23   ar
    27    23    24   ar
    28    24    25   ar
    29    25    26    1
    30    26    27    1
    31    26    28    1
    32    26    29    1
    33     6     1   ar
    34    25    21   ar
    35    19     9   ar
    36    19    13   ar
    37     7     8    1
@<TRIPOS>MOLECULE
*****
 34 37 0 0 0
SMALL
GASTEIGER

@<TRIPOS>ATOM
      1 C          62.4174   85.9187   11.6789 C.ar    1  UNL1        0.0007
      2 C          61.6176   85.6825   10.4322 C.ar    1  UNL1       -0.0025
      3 C          60.8932   86.8218    9.7786 C.ar    1  UNL1        0.0010
      4 C          60.9687   88.1975   10.3718 C.ar    1  UNL1        0.0146
      5 C          61.7685   88.4337   11.6186 C.ar    1  UNL1        0.0481
      6 C          62.4929   87.2944   12.2721 C.ar    1  UNL1        0.0121
      7 N          61.8440   89.8094   12.2118 N.pl3   1  UNL1       -0.3125
      8 H          61.1319   90.1257   12.8136 H       1  UNL1        0.1522
      9 C          63.0045   90.7031   11.8882 C.ar    1  UNL1        0.0513
     10 C          63.2389   91.1455   10.4743 C.ar    1  UNL1        0.0353
     11 C          64.3993   92.0391   10.1507 C.ar    1  UNL1        0.1001
     12 N          65.3253   92.4904   11.2411 N.ar    1  UNL1       -0.2437
     13 C          65.0909   92.0480   12.6550 C.ar    1  UNL1        0.0833
     14 C          66.0169   92.4992   13.7454 C.ar    1  UNL1        0.0305
     15 C          65.7825   92.0568   15.1593 C.ar    1  UNL1        0.0592
     16 CL         66.7085   92.5080   16.2497 Cl      1  UNL1       -0.0822
     17 C          64.6220   91.1631   15.4829 C.ar    1  UNL1        0.0115
     18 C          63.6960   90.7119   14.3926 C.ar    1  UNL1        0.0036
     19 C          63.9305   91.1543   12.9786 C.ar    1  UNL1        0.0312
     20 C          63.1418   84.7794   12.3325 C.3     1  UNL1        0.1412
     21 C          63.6522   83.6397   11.5015 C.ar    1  UNL1        0.1794
     22 N          64.4313   83.7588   10.2252 N.ar    1  UNL1       -0.1110
     23 N          64.7336   82.3735    9.7357 N.ar    1  UNL1       -0.0229
     24 N          64.1414   81.3983   10.7095 N.ar    1  UNL1       -0.0432
     25 N          63.4730   82.1808   11.8008 N.ar    1  UNL1       -0.2192
     26 C          62.7521   81.6055   12.9836 C.3     1  UNL1        0.0896
     27 C          61.5792   81.6707   12.6733 C.3     1  UNL1        0.0245
     28 C          64.0646   81.3789   13.6735 C.3     1  UNL1        0.0245
     29 C          62.0311   81.0301   14.1664 C.3     1  UNL1        0.0245
     30 N          63.3558   84.7797   13.8172 N.3     1  UNL1       -0.2643
     31 C          62.4194   84.4969   16.2240 C.3     1  UNL1        0.0188
     32 C          62.1954   84.5617   14.7423 C.3     1  UNL1        0.0728
     33 C          64.7304   84.9981   14.3767 C.3     1  UNL1        0.0728
     34 C          65.0945   86.3245   14.9750 C.3     1  UNL1        0.0188
@<TRIPOS>BOND
     1    31    32    1
     2    32    30    1
     3    30    33    1
     4    33    34    1
     5    30    20    1
     6    20     1    1
     7     1     2   ar
     8     2     3   ar
     9     3     4   ar
    10     4     5   ar
    11     5     7    1
    12     7     9    1
    13     9    10   ar
    14    10    11   ar
    15    11    12   ar
    16    12    13   ar
    17    13    14   ar
    18    14    15   ar
    19    15    16    1
    20    15    17   ar
    21    17    18   ar
    22    18    19   ar
    23     5     6   ar
    24    20    21    1
    25    21    22   ar
    26    22    23   ar
    27    23    24   ar
    28    24    25   ar
    29    25    26    1
    30    26    27    1
    31    26    28    1
    32    26    29    1
    33     6     1   ar
    34    25    21   ar
    35    19     9   ar
    36    19    13   ar
    37     7     8    1
@<TRIPOS>MOLECULE
*****
 34 37 0 0 0
SMALL
GASTEIGER

@<TRIPOS>ATOM
      1 C          64.0435   88.9351   13.8561 C.ar    1  UNL1        0.0007
      2 C          64.4806   88.3030   15.1443 C.ar    1  UNL1       -0.0025
      3 C          64.4229   86.8128   15.3060 C.ar    1  UNL1        0.0010
      4 C          63.9280   85.9548   14.1795 C.ar    1  UNL1        0.0146
      5 C          63.4909   86.5870   12.8913 C.ar    1  UNL1        0.0481
      6 C          63.5486   88.0771   12.7297 C.ar    1  UNL1        0.0121
      7 N          62.9961   85.7290   11.7649 N.pl3   1  UNL1       -0.3125
      8 H          63.3688   84.8275   11.6323 H       1  UNL1        0.1522
      9 C          61.9332   86.2446   10.8404 C.ar    1  UNL1        0.0513
     10 C          60.9133   87.2234   11.3418 C.ar    1  UNL1        0.0353
     11 C          59.8506   87.7389   10.4173 C.ar    1  UNL1        0.1001
     12 N          59.8077   87.2756    8.9913 N.ar    1  UNL1       -0.2437
     13 C          60.8277   86.2967    8.4898 C.ar    1  UNL1        0.0833
     14 C          60.7848   85.8334    7.0638 C.ar    1  UNL1        0.0305
     15 C          61.8047   84.8545    6.5623 C.ar    1  UNL1        0.0592
     16 CL         61.7619   84.3912    5.1363 Cl      1  UNL1       -0.0822
     17 C          62.8676   84.3390    7.4869 C.ar    1  UNL1        0.0115
     18 C          62.9104   84.8023    8.9129 C.ar    1  UNL1        0.0036
     19 C          61.8904   85.7812    9.4143 C.ar    1  UNL1        0.0312
     20 C          64.1012   90.4253   13.6944 C.3     1  UNL1        0.1412
     21 C          64.3067   91.3025   14.8937 C.ar    1  UNL1        0.1794
     22 N          63.2913   91.5907   15.9596 N.ar    1  UNL1       -0.1110
     23 N          63.9207   92.5118   16.9623 N.ar    1  UNL1       -0.0229
     24 N          65.3250   92.7928   16.5162 N.ar    1  UNL1       -0.0432
     25 N          65.5635   92.0454   15.2377 N.ar    1  UNL1       -0.2192
     26 C          66.8356   92.0416   14.4428 C.3     1  UNL1        0.0896
     27 C          67.2598   90.9105   14.5723 C.3     1  UNL1        0.0245
     28 C          66.6131   93.4799   14.0798 C.3     1  UNL1        0.0245
     29 C          68.1076   92.0378   13.6480 C.3     1  UNL1        0.0245
     30 N          63.9535   91.0383   12.3334 N.3     1  UNL1       -0.2643
     31 C          62.4694   90.4505   10.2835 C.3     1  UNL1        0.0188
     32 C          62.6162   91.0425   11.6539 C.3     1  UNL1        0.0728
     33 C          65.1431   91.6470   11.6518 C.3     1  UNL1        0.0728
     34 C          64.9723   92.8609   10.7873 C.3     1  UNL1        0.0188
@<TRIPOS>BOND
     1    31    32    1
     2    32    30    1
     3    30    33    1
     4    33    34    1
     5    30    20    1
     6    20     1    1
     7     1     2   ar
     8     2     3   ar
     9     3     4   ar
    10     4     5   ar
    11     5     7    1
    12     7     9    1
    13     9    10   ar
    14    10    11   ar
    15    11    12   ar
    16    12    13   ar
    17    13    14   ar
    18    14    15   ar
    19    15    16    1
    20    15    17   ar
    21    17    18   ar
    22    18    19   ar
    23     5     6   ar
    24    20    21    1
    25    21    22   ar
    26    22    23   ar
    27    23    24   ar
    28    24    25   ar
    29    25    26    1
    30    26    27    1
    31    26    28    1
    32    26    29    1
    33     6     1   ar
    34    25    21   ar
    35    19     9   ar
    36    19    13   ar
    37     7     8    1
@<TRIPOS>MOLECULE
*****
 34 37 0 0 0
SMALL
GASTEIGER

@<TRIPOS>ATOM
      1 C          62.3704   85.9688   11.6543 C.ar    1  UNL1        0.0007
      2 C          61.5906   85.7006   10.4013 C.ar    1  UNL1       -0.0025
      3 C          60.8541   86.8175    9.7228 C.ar    1  UNL1        0.0010
      4 C          60.8975   88.2024   10.2972 C.ar    1  UNL1        0.0146
      5 C          61.6773   88.4705   11.5503 C.ar    1  UNL1        0.0481
      6 C          62.4138   87.3537   12.2288 C.ar    1  UNL1        0.0121
      7 N          61.7207   89.8555   12.1248 N.pl3   1  UNL1       -0.3125
      8 H          60.9751   90.4782   11.9651 H       1  UNL1        0.1522
      9 C          62.9002   90.2917   12.9425 C.ar    1  UNL1        0.0513
     10 C          63.0192   89.8632   14.3751 C.ar    1  UNL1        0.0353
     11 C          64.1987   90.2994   15.1928 C.ar    1  UNL1        0.1001
     12 N          65.2590   91.1640   14.5779 N.ar    1  UNL1       -0.2437
     13 C          65.1400   91.5925   13.1454 C.ar    1  UNL1        0.0833
     14 C          66.2003   92.4571   12.5305 C.ar    1  UNL1        0.0305
     15 C          66.0813   92.8855   11.0980 C.ar    1  UNL1        0.0592
     16 CL         67.1416   93.7501   10.4831 Cl      1  UNL1       -0.0822
     17 C          64.9018   92.4494   10.2802 C.ar    1  UNL1        0.0115
     18 C          63.8414   91.5847   10.8951 C.ar    1  UNL1        0.0036
     19 C          63.9605   91.1563   12.3277 C.ar    1  UNL1        0.0312
     20 C          63.1069   84.8520   12.3329 C.3     1  UNL1        0.1412
     21 C          63.6365   83.7037   11.5261 C.ar    1  UNL1        0.1794
     22 N          64.4336   83.8093   10.2597 N.ar    1  UNL1       -0.1110
     23 N          64.7517   82.4191    9.7950 N.ar    1  UNL1       -0.0229
     24 N          64.1513   81.4542   10.7741 N.ar    1  UNL1       -0.0432
     25 N          63.4621   82.2482   11.8440 N.ar    1  UNL1       -0.2192
     26 C          62.7274   81.6854   13.0245 C.3     1  UNL1        0.0896
     27 C          61.5608   81.7151   12.6861 C.3     1  UNL1        0.0245
     28 C          64.0284   81.5073   13.7494 C.3     1  UNL1        0.0245
     29 C          61.9927   81.1227   14.2049 C.3     1  UNL1        0.0245
     30 N          63.3138   84.8835   13.8182 N.3     1  UNL1       -0.2643
     31 C          64.9593   86.5107   14.9990 C.3     1  UNL1        0.0188
     32 C          64.6737   85.1746   14.3800 C.3     1  UNL1        0.0728
     33 C          62.1605   84.6240   14.7417 C.3     1  UNL1        0.0728
     34 C          62.4145   84.2520   16.1725 C.3     1  UNL1        0.0188
@<TRIPOS>BOND
     1    31    32    1
     2    32    30    1
     3    30    33    1
     4    33    34    1
     5    30    20    1
     6    20     1    1
     7     1     2   ar
     8     2     3   ar
     9     3     4   ar
    10     4     5   ar
    11     5     7    1
    12     7     9    1
    13     9    10   ar
    14    10    11   ar
    15    11    12   ar
    16    12    13   ar
    17    13    14   ar
    18    14    15   ar
    19    15    16    1
    20    15    17   ar
    21    17    18   ar
    22    18    19   ar
    23     5     6   ar
    24    20    21    1
    25    21    22   ar
    26    22    23   ar
    27    23    24   ar
    28    24    25   ar
    29    25    26    1
    30    26    27    1
    31    26    28    1
    32    26    29    1
    33     6     1   ar
    34    25    21   ar
    35    19     9   ar
    36    19    13   ar
    37     7     8    1
@<TRIPOS>MOLECULE
*****
 34 37 0 0 0
SMALL
GASTEIGER

@<TRIPOS>ATOM
      1 C          62.5033   85.7315   11.7566 C.ar    1  UNL1        0.0007
      2 C          62.4193   85.4576   10.2842 C.ar    1  UNL1       -0.0025
      3 C          62.1921   86.5865    9.3230 C.ar    1  UNL1        0.0010
      4 C          62.0489   87.9894    9.8342 C.ar    1  UNL1        0.0146
      5 C          62.1329   88.2634   11.3066 C.ar    1  UNL1        0.0481
      6 C          62.3601   87.1344   12.2678 C.ar    1  UNL1        0.0121
      7 N          61.9897   89.6663   11.8179 N.pl3   1  UNL1       -0.3125
      8 H          61.1619   89.9419   12.2739 H       1  UNL1        0.1522
      9 C          63.1078   90.6493   11.6342 C.ar    1  UNL1        0.0513
     10 C          63.4003   91.2067   10.2728 C.ar    1  UNL1        0.0353
     11 C          64.5184   92.1896   10.0892 C.ar    1  UNL1        0.1001
     12 N          65.3440   92.6151   11.2671 N.ar    1  UNL1       -0.2437
     13 C          65.0515   92.0576   12.6285 C.ar    1  UNL1        0.0833
     14 C          65.8771   92.4831   13.8064 C.ar    1  UNL1        0.0305
     15 C          65.5846   91.9256   15.1679 C.ar    1  UNL1        0.0592
     16 CL         66.4101   92.3510   16.3458 Cl      1  UNL1       -0.0822
     17 C          64.4664   90.9426   15.3515 C.ar    1  UNL1        0.0115
     18 C          63.6409   90.5172   14.1736 C.ar    1  UNL1        0.0036
     19 C          63.9334   91.0747   12.8121 C.ar    1  UNL1        0.0312
     20 C          62.7305   84.6025   12.7178 C.3     1  UNL1        0.1412
     21 C          62.5296   84.8179   14.1886 C.ar    1  UNL1        0.1794
     22 N          61.2184   84.7710   14.9156 N.ar    1  UNL1       -0.1110
     23 N          61.4831   85.0420   16.3669 N.ar    1  UNL1       -0.0229
     24 N          62.9580   85.2564   16.5369 N.ar    1  UNL1       -0.0432
     25 N          63.6047   85.1178   15.1906 N.ar    1  UNL1       -0.2192
     26 C          65.0695   85.2551   14.8979 C.3     1  UNL1        0.0896
     27 C          65.4592   84.1082   14.8034 C.3     1  UNL1        0.0245
     28 C          64.9390   86.7487   14.9451 C.3     1  UNL1        0.0245
     29 C          66.5342   85.3923   14.6051 C.3     1  UNL1        0.0245
     30 N          63.1586   83.2583   12.2081 N.3     1  UNL1       -0.2643
     31 C          62.8322   80.9214   13.2955 C.3     1  UNL1        0.0188
     32 C          62.3040   82.0524   12.4637 C.3     1  UNL1        0.0728
     33 C          64.4413   83.1200   11.4429 C.3     1  UNL1        0.0728
     34 C          64.4385   82.4893   10.0820 C.3     1  UNL1        0.0188
@<TRIPOS>BOND
     1    31    32    1
     2    32    30    1
     3    30    33    1
     4    33    34    1
     5    30    20    1
     6    20     1    1
     7     1     2   ar
     8     2     3   ar
     9     3     4   ar
    10     4     5   ar
    11     5     7    1
    12     7     9    1
    13     9    10   ar
    14    10    11   ar
    15    11    12   ar
    16    12    13   ar
    17    13    14   ar
    18    14    15   ar
    19    15    16    1
    20    15    17   ar
    21    17    18   ar
    22    18    19   ar
    23     5     6   ar
    24    20    21    1
    25    21    22   ar
    26    22    23   ar
    27    23    24   ar
    28    24    25   ar
    29    25    26    1
    30    26    27    1
    31    26    28    1
    32    26    29    1
    33     6     1   ar
    34    25    21   ar
    35    19     9   ar
    36    19    13   ar
    37     7     8    1
@<TRIPOS>MOLECULE
*****
 34 37 0 0 0
SMALL
GASTEIGER

@<TRIPOS>ATOM
      1 C          62.5052   85.6707   11.6759 C.ar    1  UNL1        0.0007
      2 C          62.4518   85.3421   10.2134 C.ar    1  UNL1       -0.0025
      3 C          62.2408   86.4339    9.2065 C.ar    1  UNL1        0.0010
      4 C          62.0833   87.8542    9.6624 C.ar    1  UNL1        0.0146
      5 C          62.1367   88.1828   11.1250 C.ar    1  UNL1        0.0481
      6 C          62.3477   87.0910   12.1318 C.ar    1  UNL1        0.0121
      7 N          61.9792   89.6031   11.5809 N.pl3   1  UNL1       -0.3125
      8 H          61.2454   90.1554   11.2262 H       1  UNL1        0.1522
      9 C          62.9396   90.1820   12.5772 C.ar    1  UNL1        0.0513
     10 C          62.9015   89.7286   14.0065 C.ar    1  UNL1        0.0353
     11 C          63.8620   90.3074   15.0027 C.ar    1  UNL1        0.1001
     12 N          64.8604   91.3396   14.5697 N.ar    1  UNL1       -0.2437
     13 C          64.8985   91.7930   13.1404 C.ar    1  UNL1        0.0833
     14 C          65.8970   92.8252   12.7073 C.ar    1  UNL1        0.0305
     15 C          65.9350   93.2786   11.2780 C.ar    1  UNL1        0.0592
     16 CL         66.9335   94.3109   10.8449 Cl      1  UNL1       -0.0822
     17 C          64.9746   92.6998   10.2817 C.ar    1  UNL1        0.0115
     18 C          63.9761   91.6676   10.7147 C.ar    1  UNL1        0.0036
     19 C          63.9381   91.2142   12.1441 C.ar    1  UNL1        0.0312
     20 C          62.7162   84.5789   12.6827 C.3     1  UNL1        0.1412
     21 C          62.4844   84.8476   14.1401 C.ar    1  UNL1        0.1794
     22 N          61.1553   84.8520   14.8354 N.ar    1  UNL1       -0.1110
     23 N          61.3905   85.1662   16.2831 N.ar    1  UNL1       -0.0229
     24 N          62.8651   85.3560   16.4826 N.ar    1  UNL1       -0.0432
     25 N          63.5411   85.1591   15.1581 N.ar    1  UNL1       -0.2192
     26 C          65.0151   85.2566   14.8975 C.3     1  UNL1        0.0896
     27 C          65.3783   84.0993   14.8266 C.3     1  UNL1        0.0245
     28 C          64.9206   86.7534   14.9227 C.3     1  UNL1        0.0245
     29 C          66.4890   85.3540   14.6369 C.3     1  UNL1        0.0245
     30 N          63.1590   83.2184   12.2320 N.3     1  UNL1       -0.2643
     31 C          62.8780   80.9112   13.3930 C.3     1  UNL1        0.0188
     32 C          62.3199   82.0150   12.5443 C.3     1  UNL1        0.0728
     33 C          64.4409   83.0615   11.4690 C.3     1  UNL1        0.0728
     34 C          64.4320   82.4255   10.1105 C.3     1  UNL1        0.0188
@<TRIPOS>BOND
     1    31    32    1
     2    32    30    1
     3    30    33    1
     4    33    34    1
     5    30    20    1
     6    20     1    1
     7     1     2   ar
     8     2     3   ar
     9     3     4   ar
    10     4     5   ar
    11     5     7    1
    12     7     9    1
    13     9    10   ar
    14    10    11   ar
    15    11    12   ar
    16    12    13   ar
    17    13    14   ar
    18    14    15   ar
    19    15    16    1
    20    15    17   ar
    21    17    18   ar
    22    18    19   ar
    23     5     6   ar
    24    20    21    1
    25    21    22   ar
    26    22    23   ar
    27    23    24   ar
    28    24    25   ar
    29    25    26    1
    30    26    27    1
    31    26    28    1
    32    26    29    1
    33     6     1   ar
    34    25    21   ar
    35    19     9   ar
    36    19    13   ar
    37     7     8    1
@<TRIPOS>MOLECULE
*****
 34 37 0 0 0
SMALL
GASTEIGER

@<TRIPOS>ATOM
      1 C          64.0855   88.6746   13.8567 C.ar    1  UNL1        0.0007
      2 C          65.0390   88.0704   14.8445 C.ar    1  UNL1       -0.0025
      3 C          65.0665   86.5845   15.0480 C.ar    1  UNL1        0.0010
      4 C          64.1404   85.7028   14.2637 C.ar    1  UNL1        0.0146
      5 C          63.1869   86.3071   13.2758 C.ar    1  UNL1        0.0481
      6 C          63.1595   87.7930   13.0724 C.ar    1  UNL1        0.0121
      7 N          62.2609   85.4255   12.4915 N.pl3   1  UNL1       -0.3125
      8 H          61.5423   84.9338   12.9511 H       1  UNL1        0.1522
      9 C          62.4296   85.2929   11.0069 C.ar    1  UNL1        0.0513
     10 C          63.4419   84.3365   10.4495 C.ar    1  UNL1        0.0353
     11 C          63.6106   84.2040    8.9650 C.ar    1  UNL1        0.1001
     12 N          62.7671   85.0279    8.0378 N.ar    1  UNL1       -0.2437
     13 C          61.7549   85.9843    8.5951 C.ar    1  UNL1        0.0833
     14 C          60.9114   86.8082    7.6679 C.ar    1  UNL1        0.0305
     15 C          59.8991   87.7646    8.2253 C.ar    1  UNL1        0.0592
     16 CL         59.0557   88.5885    7.2980 Cl      1  UNL1       -0.0822
     17 C          59.7304   87.8972    9.7099 C.ar    1  UNL1        0.0115
     18 C          60.5739   87.0733   10.6371 C.ar    1  UNL1        0.0036
     19 C          61.5861   86.1168   10.0797 C.ar    1  UNL1        0.0312
     20 C          64.0580   90.1605   13.6532 C.3     1  UNL1        0.1412
     21 C          64.2547   91.0812   14.8209 C.ar    1  UNL1        0.1794
     22 N          63.2585   91.3493   15.9098 N.ar    1  UNL1       -0.1110
     23 N          63.8702   92.3293   16.8667 N.ar    1  UNL1       -0.0229
     24 N          65.2444   92.6668   16.3690 N.ar    1  UNL1       -0.0432
     25 N          65.4820   91.8955   15.1047 N.ar    1  UNL1       -0.2192
     26 C          66.7282   91.9320   14.2707 C.3     1  UNL1        0.0896
     27 C          67.2363   90.8436   14.4534 C.3     1  UNL1        0.0245
     28 C          66.3926   93.3260   13.8301 C.3     1  UNL1        0.0245
     29 C          67.9744   91.9685   13.4366 C.3     1  UNL1        0.0245
     30 N          63.8339   90.7257   12.2819 N.3     1  UNL1       -0.2643
     31 C          64.8137   92.5998   10.7727 C.3     1  UNL1        0.0188
     32 C          64.9835   91.3063   11.5129 C.3     1  UNL1        0.0728
     33 C          62.4602   90.7103   11.6797 C.3     1  UNL1        0.0728
     34 C          62.2722   90.2937   10.2510 C.3     1  UNL1        0.0188
@<TRIPOS>BOND
     1    31    32    1
     2    32    30    1
     3    30    33    1
     4    33    34    1
     5    30    20    1
     6    20     1    1
     7     1     2   ar
     8     2     3   ar
     9     3     4   ar
    10     4     5   ar
    11     5     7    1
    12     7     9    1
    13     9    10   ar
    14    10    11   ar
    15    11    12   ar
    16    12    13   ar
    17    13    14   ar
    18    14    15   ar
    19    15    16    1
    20    15    17   ar
    21    17    18   ar
    22    18    19   ar
    23     5     6   ar
    24    20    21    1
    25    21    22   ar
    26    22    23   ar
    27    23    24   ar
    28    24    25   ar
    29    25    26    1
    30    26    27    1
    31    26    28    1
    32    26    29    1
    33     6     1   ar
    34    25    21   ar
    35    19     9   ar
    36    19    13   ar
    37     7     8    1
@<TRIPOS>MOLECULE
*****
 34 37 0 0 0
SMALL
GASTEIGER

@<TRIPOS>ATOM
      1 C          62.2314   85.7632   11.2257 C.ar    1  UNL1        0.0007
      2 C          62.2745   84.3579   10.7031 C.ar    1  UNL1       -0.0025
      3 C          63.0822   83.3160   11.4187 C.ar    1  UNL1        0.0010
      4 C          63.8468   83.6795   12.6570 C.ar    1  UNL1        0.0146
      5 C          63.8037   85.0849   13.1796 C.ar    1  UNL1        0.0481
      6 C          62.9960   86.1267   12.4640 C.ar    1  UNL1        0.0121
      7 N          64.5683   85.4484   14.4178 N.pl3   1  UNL1       -0.3125
      8 H          65.5227   85.2186   14.4923 H       1  UNL1        0.1522
      9 C          63.8787   86.1620   15.5427 C.ar    1  UNL1        0.0513
     10 C          63.1391   85.3787   16.5864 C.ar    1  UNL1        0.0353
     11 C          62.4495   86.0923   17.7112 C.ar    1  UNL1        0.1001
     12 N          62.4997   87.5893   17.7923 N.ar    1  UNL1       -0.2437
     13 C          63.2393   88.3726   16.7487 C.ar    1  UNL1        0.0833
     14 C          63.2894   89.8696   16.8298 C.ar    1  UNL1        0.0305
     15 C          64.0291   90.6529   15.7862 C.ar    1  UNL1        0.0592
     16 CL         64.0792   92.1499   15.8673 Cl      1  UNL1       -0.0822
     17 C          64.7187   89.9393   14.6613 C.ar    1  UNL1        0.0115
     18 C          64.6686   88.4423   14.5802 C.ar    1  UNL1        0.0036
     19 C          63.9288   87.6590   15.6239 C.ar    1  UNL1        0.0312
     20 C          61.4236   86.8052   10.5101 C.3     1  UNL1        0.1412
     21 C          60.6730   87.8410   11.2934 C.ar    1  UNL1        0.1794
     22 N          59.3924   87.6226   12.0433 N.ar    1  UNL1       -0.1110
     23 N          58.9990   88.9236   12.6777 N.ar    1  UNL1       -0.0229
     24 N          60.0366   89.9462   12.3199 N.ar    1  UNL1       -0.0432
     25 N          61.0711   89.2770   11.4643 N.ar    1  UNL1       -0.2192
     26 C          62.2898   89.9294   10.8820 C.3     1  UNL1        0.0896
     27 C          63.1654   89.6907   11.6897 C.3     1  UNL1        0.0245
     28 C          61.4797   90.3958    9.7089 C.3     1  UNL1        0.0245
     29 C          63.5085   90.5818   10.2997 C.3     1  UNL1        0.0245
     30 N          61.3666   86.8112    9.0112 N.3     1  UNL1       -0.2643
     31 C          62.0337   85.1052    7.1688 C.3     1  UNL1        0.0188
     32 C          62.4247   86.1038    8.2176 C.3     1  UNL1        0.0728
     33 C          60.2514   87.5247    8.3060 C.3     1  UNL1        0.0728
     34 C          58.9618   86.8109    8.0279 C.3     1  UNL1        0.0188
@<TRIPOS>BOND
     1    31    32    1
     2    32    30    1
     3    30    33    1
     4    33    34    1
     5    30    20    1
     6    20     1    1
     7     1     2   ar
     8     2     3   ar
     9     3     4   ar
    10     4     5   ar
    11     5     7    1
    12     7     9    1
    13     9    10   ar
    14    10    11   ar
    15    11    12   ar
    16    12    13   ar
    17    13    14   ar
    18    14    15   ar
    19    15    16    1
    20    15    17   ar
    21    17    18   ar
    22    18    19   ar
    23     5     6   ar
    24    20    21    1
    25    21    22   ar
    26    22    23   ar
    27    23    24   ar
    28    24    25   ar
    29    25    26    1
    30    26    27    1
    31    26    28    1
    32    26    29    1
    33     6     1   ar
    34    25    21   ar
    35    19     9   ar
    36    19    13   ar
    37     7     8    1
@<TRIPOS>MOLECULE
*****
 34 37 0 0 0
SMALL
GASTEIGER

@<TRIPOS>ATOM
      1 C          64.0778   88.9312   13.7532 C.ar    1  UNL1        0.0007
      2 C          64.8752   88.2357   14.8164 C.ar    1  UNL1       -0.0025
      3 C          64.8105   86.7427   14.9465 C.ar    1  UNL1        0.0010
      4 C          63.9484   85.9453   14.0134 C.ar    1  UNL1        0.0146
      5 C          63.1510   86.6408   12.9501 C.ar    1  UNL1        0.0481
      6 C          63.2157   88.1337   12.8201 C.ar    1  UNL1        0.0121
      7 N          62.2889   85.8433   12.0169 N.pl3   1  UNL1       -0.3125
      8 H          61.3752   86.1465   11.8106 H       1  UNL1        0.1522
      9 C          62.8189   84.5838   11.3981 C.ar    1  UNL1        0.0513
     10 C          63.4866   84.6311   10.0557 C.ar    1  UNL1        0.0353
     11 C          64.0165   83.3717    9.4370 C.ar    1  UNL1        0.1001
     12 N          63.8788   82.0650   10.1605 N.ar    1  UNL1       -0.2437
     13 C          63.2111   82.0177   11.5029 C.ar    1  UNL1        0.0833
     14 C          63.0734   80.7110   12.2264 C.ar    1  UNL1        0.0305
     15 C          62.4057   80.6637   13.5688 C.ar    1  UNL1        0.0592
     16 CL         62.2680   79.3570   14.2923 Cl      1  UNL1       -0.0822
     17 C          61.8757   81.9232   14.1876 C.ar    1  UNL1        0.0115
     18 C          62.0134   83.2299   13.4641 C.ar    1  UNL1        0.0036
     19 C          62.6812   83.2771   12.1216 C.ar    1  UNL1        0.0312
     20 C          64.1424   90.4242   13.6231 C.3     1  UNL1        0.1412
     21 C          64.3335   91.2757   14.8431 C.ar    1  UNL1        0.1794
     22 N          63.3108   91.5285   15.9109 N.ar    1  UNL1       -0.1110
     23 N          63.9260   92.4330   16.9372 N.ar    1  UNL1       -0.0229
     24 N          65.3290   92.7393   16.5036 N.ar    1  UNL1       -0.0432
     25 N          65.5808   92.0241   15.2094 N.ar    1  UNL1       -0.2192
     26 C          66.8560   92.0523   14.4201 C.3     1  UNL1        0.0896
     27 C          67.3065   90.9313   14.5492 C.3     1  UNL1        0.0245
     28 C          66.6009   93.4856   14.0589 C.3     1  UNL1        0.0245
     29 C          68.1312   92.0804   13.6309 C.3     1  UNL1        0.0245
     30 N          64.0160   91.0655   12.2731 N.3     1  UNL1       -0.2643
     31 C          62.5165   90.4842   10.2326 C.3     1  UNL1        0.0188
     32 C          62.6836   91.1099   11.5856 C.3     1  UNL1        0.0728
     33 C          65.2222   91.6625   11.6105 C.3     1  UNL1        0.0728
     34 C          65.0849   92.9064   10.7835 C.3     1  UNL1        0.0188
@<TRIPOS>BOND
     1    31    32    1
     2    32    30    1
     3    30    33    1
     4    33    34    1
     5    30    20    1
     6    20     1    1
     7     1     2   ar
     8     2     3   ar
     9     3     4   ar
    10     4     5   ar
    11     5     7    1
    12     7     9    1
    13     9    10   ar
    14    10    11   ar
    15    11    12   ar
    16    12    13   ar
    17    13    14   ar
    18    14    15   ar
    19    15    16    1
    20    15    17   ar
    21    17    18   ar
    22    18    19   ar
    23     5     6   ar
    24    20    21    1
    25    21    22   ar
    26    22    23   ar
    27    23    24   ar
    28    24    25   ar
    29    25    26    1
    30    26    27    1
    31    26    28    1
    32    26    29    1
    33     6     1   ar
    34    25    21   ar
    35    19     9   ar
    36    19    13   ar
    37     7     8    1
