@<TRIPOS>MOLECULE
*****
 30 32 0 0 0
SMALL
GASTEIGER

@<TRIPOS>ATOM
      1 C          61.8358   88.4711   11.2465 C.ar    1  UNL1        0.0577
      2 C          62.8218   88.4143   12.3755 C.ar    1  UNL1        0.0462
      3 C          63.7241   89.5824   12.6427 C.ar    1  UNL1        0.1602
      4 F          64.7101   89.5257   13.7717 F       1  UNL1       -0.2027
      5 C          63.6404   90.8073   11.7809 C.ar    1  UNL1        0.1534
      6 C          62.6544   90.8640   10.6519 C.ar    1  UNL1        0.0351
      7 C          61.7521   89.6959   10.3847 C.ar    1  UNL1        0.0722
      8 CL         60.7661   89.7527    9.2558 Cl      1  UNL1       -0.0809
      9 S          64.5426   91.9754   12.0481 S.O2    1  UNL1        0.0772
     10 O          64.1135   91.9781   13.4854 O.2     1  UNL1       -0.1498
     11 O          64.9718   91.9727   10.6108 O.2     1  UNL1       -0.1498
     12 N          65.4449   93.1435   12.3153 N.pl3   1  UNL1       -0.1936
     13 H          65.3630   93.9625   11.7751 H       1  UNL1        0.1758
     14 C          66.4721   93.0638   13.4055 C.ar    1  UNL1        0.1786
     15 N          66.6168   94.0199   14.5523 N.ar    1  UNL1       -0.2214
     16 C          67.7690   93.5611   15.3959 C.ar    1  UNL1        0.1079
     17 C          68.3365   92.3213   14.7705 C.ar    1  UNL1        0.0588
     18 S          67.5350   92.0140   13.5404 S.2     1  UNL1       -0.0497
     19 N          60.9335   87.3030   10.9793 N.pl3   1  UNL1       -0.3319
     20 H          60.0454   87.2602   11.4020 H       1  UNL1        0.1468
     21 C          61.3844   86.2001   10.0681 C.3     1  UNL1        0.0870
     22 N          65.1871   82.0157   12.0757 N.3     1  UNL1       -0.3222
     23 C          64.2364   83.0618   11.5738 C.3     1  UNL1        0.0508
     24 C          64.1575   83.3614   10.1062 C.3     1  UNL1        0.0155
     25 C          63.2069   84.4075    9.6043 C.3     1  UNL1        0.0031
     26 C          62.3351   85.1540   10.5700 C.3     1  UNL1        0.0196
     27 C          62.4139   84.8544   12.0376 C.3     1  UNL1        0.0031
     28 C          63.3646   83.8083   12.5395 C.3     1  UNL1        0.0155
     29 H          65.6961   81.6132   11.2887 H       1  UNL1        0.1188
     30 H          64.6639   81.2819   12.5533 H       1  UNL1        0.1188
@<TRIPOS>BOND
     1    23    22    1
     2    23    24    1
     3    24    25    1
     4    25    26    1
     5    26    21    1
     6    21    19    1
     7    19     1    1
     8     1     2   ar
     9     2     3   ar
    10     3     4    1
    11     3     5   ar
    12     5     9    1
    13     9    10    2
    14     9    11    2
    15     9    12    1
    16    12    14    1
    17    14    15   ar
    18    15    16   ar
    19    16    17   ar
    20    17    18   ar
    21     5     6   ar
    22     6     7   ar
    23     7     8    1
    24    26    27    1
    25    27    28    1
    26    28    23    1
    27     7     1   ar
    28    18    14   ar
    29    22    29    1
    30    22    30    1
    31    19    20    1
    32    12    13    1
@<TRIPOS>MOLECULE
*****
 30 32 0 0 0
SMALL
GASTEIGER

@<TRIPOS>ATOM
      1 C          63.4899   89.6631   15.3821 C.ar    1  UNL1        0.0577
      2 C          63.2800   88.8832   16.6462 C.ar    1  UNL1        0.0462
      3 C          63.4338   87.3911   16.6411 C.ar    1  UNL1        0.1602
      4 F          63.2239   86.6112   17.9051 F       1  UNL1       -0.2027
      5 C          63.7976   86.6789   15.3720 C.ar    1  UNL1        0.1534
      6 C          64.0075   87.4588   14.1080 C.ar    1  UNL1        0.0351
      7 C          63.8537   88.9509   14.1131 C.ar    1  UNL1        0.0722
      8 CL         64.0636   89.7309   12.8492 Cl      1  UNL1       -0.0809
      9 S          63.9515   85.1868   15.3669 S.O2    1  UNL1        0.0772
     10 O          65.4009   85.3375   15.0112 O.2     1  UNL1       -0.1498
     11 O          62.5021   85.0362   15.7227 O.2     1  UNL1       -0.1498
     12 N          64.1053   83.6948   15.3618 N.pl3   1  UNL1       -0.1936
     13 H          64.6826   83.2572   16.0285 H       1  UNL1        0.1758
     14 C          63.3795   82.8694   14.3410 C.ar    1  UNL1        0.1786
     15 N          62.3675   81.8004   14.6293 N.ar    1  UNL1       -0.2214
     16 C          61.9008   81.2384   13.3192 C.ar    1  UNL1        0.1079
     17 C          62.6244   81.9603   12.2212 C.ar    1  UNL1        0.0588
     18 S          63.5382   82.9682   12.8527 S.2     1  UNL1       -0.0497
     19 N          63.3361   91.1552   15.3872 N.pl3   1  UNL1       -0.3319
     20 H          62.5627   91.5718   14.9427 H       1  UNL1        0.1468
     21 C          64.3604   92.0125   16.0696 C.3     1  UNL1        0.0870
     22 N          69.9429   92.3237   13.8927 N.3     1  UNL1       -0.3222
     23 C          68.5473   92.2459   14.4369 C.3     1  UNL1        0.0508
     24 C          67.4084   91.8820   13.5313 C.3     1  UNL1        0.0155
     25 C          66.0127   91.8041   14.0755 C.3     1  UNL1        0.0031
     26 C          65.7561   92.0903   15.5254 C.3     1  UNL1        0.0196
     27 C          66.8950   92.4542   16.4310 C.3     1  UNL1        0.0031
     28 C          68.2906   92.5320   15.8868 C.3     1  UNL1        0.0155
     29 H          69.9327   92.1007   12.8975 H       1  UNL1        0.1188
     30 H          70.5374   91.6565   14.3845 H       1  UNL1        0.1188
@<TRIPOS>BOND
     1    23    22    1
     2    23    24    1
     3    24    25    1
     4    25    26    1
     5    26    21    1
     6    21    19    1
     7    19     1    1
     8     1     2   ar
     9     2     3   ar
    10     3     4    1
    11     3     5   ar
    12     5     9    1
    13     9    10    2
    14     9    11    2
    15     9    12    1
    16    12    14    1
    17    14    15   ar
    18    15    16   ar
    19    16    17   ar
    20    17    18   ar
    21     5     6   ar
    22     6     7   ar
    23     7     8    1
    24    26    27    1
    25    27    28    1
    26    28    23    1
    27     7     1   ar
    28    18    14   ar
    29    22    29    1
    30    22    30    1
    31    19    20    1
    32    12    13    1
@<TRIPOS>MOLECULE
*****
 30 32 0 0 0
SMALL
GASTEIGER

@<TRIPOS>ATOM
      1 C          62.4692   89.4508   11.8362 C.ar    1  UNL1        0.0577
      2 C          63.4509   89.5247   12.9681 C.ar    1  UNL1        0.0462
      3 C          64.5138   90.5832   12.9710 C.ar    1  UNL1        0.1602
      4 F          65.4954   90.6572   14.1028 F       1  UNL1       -0.2027
      5 C          64.5950   91.5676   11.8421 C.ar    1  UNL1        0.1534
      6 C          63.6134   91.4936   10.7103 C.ar    1  UNL1        0.0351
      7 C          62.5505   90.4352   10.7074 C.ar    1  UNL1        0.0722
      8 CL         61.5689   90.3612    9.5757 Cl      1  UNL1       -0.0809
      9 S          65.6579   92.6260   11.8450 S.O2    1  UNL1        0.0772
     10 O          66.0945   92.1914   10.4774 O.2     1  UNL1       -0.1498
     11 O          65.2214   93.0606   13.2127 O.2     1  UNL1       -0.1498
     12 N          66.7208   93.6844   11.8480 N.pl3   1  UNL1       -0.1936
     13 H          67.4024   93.6956   12.5583 H       1  UNL1        0.1758
     14 C          66.7453   94.7257   10.7685 C.ar    1  UNL1        0.1786
     15 N          67.7833   94.8572    9.6937 N.ar    1  UNL1       -0.2214
     16 C          67.4157   96.0311    8.8353 C.ar    1  UNL1        0.1079
     17 C          66.1504   96.6251    9.3797 C.ar    1  UNL1        0.0588
     18 S          65.7361   95.8183   10.5744 S.2     1  UNL1       -0.0497
     19 N          61.4063   88.3924   11.8333 N.pl3   1  UNL1       -0.3319
     20 H          60.8116   88.2898   12.6112 H       1  UNL1        0.1468
     21 C          61.2495   87.4902   10.6453 C.3     1  UNL1        0.0870
     22 N          64.4939   82.4585   10.2503 N.3     1  UNL1       -0.3222
     23 C          63.6828   83.7164   10.3490 C.3     1  UNL1        0.0508
     24 C          63.3887   84.5179    9.1157 C.3     1  UNL1        0.0155
     25 C          62.5776   85.7758    9.2145 C.3     1  UNL1        0.0031
     26 C          62.0606   86.2323   10.5465 C.3     1  UNL1        0.0196
     27 C          62.3548   85.4308   11.7798 C.3     1  UNL1        0.0031
     28 C          63.1659   84.1729   11.6811 C.3     1  UNL1        0.0155
     29 H          64.7602   82.3011    9.2783 H       1  UNL1        0.1188
     30 H          63.9396   81.6695   10.5830 H       1  UNL1        0.1188
@<TRIPOS>BOND
     1    23    22    1
     2    23    24    1
     3    24    25    1
     4    25    26    1
     5    26    21    1
     6    21    19    1
     7    19     1    1
     8     1     2   ar
     9     2     3   ar
    10     3     4    1
    11     3     5   ar
    12     5     9    1
    13     9    10    2
    14     9    11    2
    15     9    12    1
    16    12    14    1
    17    14    15   ar
    18    15    16   ar
    19    16    17   ar
    20    17    18   ar
    21     5     6   ar
    22     6     7   ar
    23     7     8    1
    24    26    27    1
    25    27    28    1
    26    28    23    1
    27     7     1   ar
    28    18    14   ar
    29    22    29    1
    30    22    30    1
    31    19    20    1
    32    12    13    1
@<TRIPOS>MOLECULE
*****
 30 32 0 0 0
SMALL
GASTEIGER

@<TRIPOS>ATOM
      1 C          61.8974   88.6570   11.4733 C.ar    1  UNL1        0.0577
      2 C          62.9321   88.6932   12.5588 C.ar    1  UNL1        0.0462
      3 C          63.8493   89.8736   12.6815 C.ar    1  UNL1        0.1602
      4 F          64.8839   89.9098   13.7670 F       1  UNL1       -0.2027
      5 C          63.7320   91.0180   11.7188 C.ar    1  UNL1        0.1534
      6 C          62.6974   90.9818   10.6333 C.ar    1  UNL1        0.0351
      7 C          61.7801   89.8013   10.5106 C.ar    1  UNL1        0.0722
      8 CL         60.7455   89.7651    9.4251 Cl      1  UNL1       -0.0809
      9 S          64.6493   92.1984   11.8415 S.O2    1  UNL1        0.0772
     10 O          64.5286   92.1369   13.3354 O.2     1  UNL1       -0.1498
     11 O          64.7700   92.2600   10.3477 O.2     1  UNL1       -0.1498
     12 N          65.5666   93.3789   11.9643 N.pl3   1  UNL1       -0.1936
     13 H          65.4938   93.9802   12.7404 H       1  UNL1        0.1758
     14 C          66.5947   93.6432   10.9045 C.ar    1  UNL1        0.1786
     15 N          67.7050   92.7179   10.5029 N.ar    1  UNL1       -0.2214
     16 C          68.4896   93.3819    9.4105 C.ar    1  UNL1        0.1079
     17 C          67.8642   94.7177    9.1369 C.ar    1  UNL1        0.0588
     18 S          66.6932   94.8791   10.0602 S.2     1  UNL1       -0.0497
     19 N          60.9801   87.4765   11.3505 N.pl3   1  UNL1       -0.3319
     20 H          60.1622   87.4298   11.8965 H       1  UNL1        0.1468
     21 C          61.3090   86.3672   10.3959 C.3     1  UNL1        0.0870
     22 N          65.1728   82.0692   12.0077 N.3     1  UNL1       -0.3222
     23 C          64.2068   83.1437   11.6048 C.3     1  UNL1        0.0508
     24 C          63.4514   83.9048   12.6535 C.3     1  UNL1        0.0155
     25 C          62.4855   84.9794   12.2506 C.3     1  UNL1        0.0031
     26 C          62.2750   85.2927   10.7989 C.3     1  UNL1        0.0196
     27 C          63.0304   84.5316    9.7501 C.3     1  UNL1        0.0031
     28 C          63.9963   83.4570   10.1531 C.3     1  UNL1        0.0155
     29 H          65.1900   81.9914   13.0246 H       1  UNL1        0.1188
     30 H          66.1053   82.3058   11.6690 H       1  UNL1        0.1188
@<TRIPOS>BOND
     1    23    22    1
     2    23    24    1
     3    24    25    1
     4    25    26    1
     5    26    21    1
     6    21    19    1
     7    19     1    1
     8     1     2   ar
     9     2     3   ar
    10     3     4    1
    11     3     5   ar
    12     5     9    1
    13     9    10    2
    14     9    11    2
    15     9    12    1
    16    12    14    1
    17    14    15   ar
    18    15    16   ar
    19    16    17   ar
    20    17    18   ar
    21     5     6   ar
    22     6     7   ar
    23     7     8    1
    24    26    27    1
    25    27    28    1
    26    28    23    1
    27     7     1   ar
    28    18    14   ar
    29    22    29    1
    30    22    30    1
    31    19    20    1
    32    12    13    1
@<TRIPOS>MOLECULE
*****
 30 32 0 0 0
SMALL
GASTEIGER

@<TRIPOS>ATOM
      1 C          62.8943   89.3120   12.0191 C.ar    1  UNL1        0.0577
      2 C          62.8672   90.3219   10.9103 C.ar    1  UNL1        0.0462
      3 C          63.8073   91.4905   10.9371 C.ar    1  UNL1        0.1602
      4 F          63.7802   92.5004    9.8283 F       1  UNL1       -0.2027
      5 C          64.7745   91.6491   12.0727 C.ar    1  UNL1        0.1534
      6 C          64.8015   90.6393   13.1814 C.ar    1  UNL1        0.0351
      7 C          63.8614   89.4707   13.1546 C.ar    1  UNL1        0.0722
      8 CL         63.8885   88.4608   14.2634 Cl      1  UNL1       -0.0809
      9 S          65.7145   92.8177   12.0994 S.O2    1  UNL1        0.0772
     10 O          66.1524   92.4974   10.7010 O.2     1  UNL1       -0.1498
     11 O          65.2767   93.1379   13.4979 O.2     1  UNL1       -0.1498
     12 N          66.6546   93.9863   12.1262 N.pl3   1  UNL1       -0.1936
     13 H          67.2387   94.1304   12.9055 H       1  UNL1        0.1758
     14 C          66.7048   94.9352   10.9655 C.ar    1  UNL1        0.1786
     15 N          67.6826   94.8871    9.8290 N.ar    1  UNL1       -0.2214
     16 C          67.3682   96.0209    8.8987 C.ar    1  UNL1        0.1079
     17 C          66.1960   96.7698    9.4602 C.ar    1  UNL1        0.0588
     18 S          65.7860   96.0987   10.7376 S.2     1  UNL1       -0.0497
     19 N          61.9542   88.1435   11.9924 N.pl3   1  UNL1       -0.3319
     20 H          62.0627   87.4095   12.6395 H       1  UNL1        0.1468
     21 C          60.8488   88.0932   10.9797 C.3     1  UNL1        0.0870
     22 N          61.3310   84.5158    6.1871 N.3     1  UNL1       -0.3222
     23 C          61.2105   85.4101    7.3853 C.3     1  UNL1        0.0508
     24 C          59.9191   86.1204    7.6641 C.3     1  UNL1        0.0155
     25 C          59.7986   87.0148    8.8622 C.3     1  UNL1        0.0031
     26 C          60.9694   87.1988    9.7816 C.3     1  UNL1        0.0196
     27 C          62.2607   86.4885    9.5028 C.3     1  UNL1        0.0031
     28 C          62.3813   85.5942    8.3046 C.3     1  UNL1        0.0155
     29 H          60.4470   84.5078    5.6784 H       1  UNL1        0.1188
     30 H          61.5569   83.5687    6.4911 H       1  UNL1        0.1188
@<TRIPOS>BOND
     1    23    22    1
     2    23    24    1
     3    24    25    1
     4    25    26    1
     5    26    21    1
     6    21    19    1
     7    19     1    1
     8     1     2   ar
     9     2     3   ar
    10     3     4    1
    11     3     5   ar
    12     5     9    1
    13     9    10    2
    14     9    11    2
    15     9    12    1
    16    12    14    1
    17    14    15   ar
    18    15    16   ar
    19    16    17   ar
    20    17    18   ar
    21     5     6   ar
    22     6     7   ar
    23     7     8    1
    24    26    27    1
    25    27    28    1
    26    28    23    1
    27     7     1   ar
    28    18    14   ar
    29    22    29    1
    30    22    30    1
    31    19    20    1
    32    12    13    1
@<TRIPOS>MOLECULE
*****
 30 32 0 0 0
SMALL
GASTEIGER

@<TRIPOS>ATOM
      1 C          63.3235   88.6678   12.4744 C.ar    1  UNL1        0.0577
      2 C          63.9744   88.4280   13.8044 C.ar    1  UNL1        0.0462
      3 C          64.0897   87.0325   14.3423 C.ar    1  UNL1        0.1602
      4 F          64.7406   86.7927   15.6722 F       1  UNL1       -0.2027
      5 C          63.5540   85.8768   13.5502 C.ar    1  UNL1        0.1534
      6 C          62.9031   86.1166   12.2203 C.ar    1  UNL1        0.0351
      7 C          62.7878   87.5120   11.6824 C.ar    1  UNL1        0.0722
      8 CL         62.1369   87.7518   10.3524 Cl      1  UNL1       -0.0809
      9 S          63.6693   84.4813   14.0881 S.O2    1  UNL1        0.0772
     10 O          62.2160   84.5041   14.4587 O.2     1  UNL1       -0.1498
     11 O          65.1226   84.4585   13.7174 O.2     1  UNL1       -0.1498
     12 N          63.7845   83.0858   14.6260 N.pl3   1  UNL1       -0.1936
     13 H          64.1785   82.9319   15.5150 H       1  UNL1        0.1758
     14 C          63.2995   81.9248   13.8093 C.ar    1  UNL1        0.1786
     15 N          62.7152   80.6519   14.3464 N.ar    1  UNL1       -0.2214
     16 C          62.3683   79.7733   13.1813 C.ar    1  UNL1        0.1079
     17 C          62.7382   80.5031   11.9240 C.ar    1  UNL1        0.0588
     18 S          63.3137   81.8328   12.3122 S.2     1  UNL1       -0.0497
     19 N          63.2082   90.0632   11.9365 N.pl3   1  UNL1       -0.3319
     20 H          62.9113   90.2105   11.0095 H       1  UNL1        0.1468
     21 C          63.5452   91.2343   12.8110 C.3     1  UNL1        0.0870
     22 N          69.2632   92.3730   14.2283 N.3     1  UNL1       -0.3222
     23 C          67.8337   92.0883   13.8740 C.3     1  UNL1        0.0508
     24 C          66.9067   91.5115   14.9024 C.3     1  UNL1        0.0155
     25 C          65.4772   91.2268   14.5481 C.3     1  UNL1        0.0031
     26 C          64.9747   91.5190   13.1654 C.3     1  UNL1        0.0196
     27 C          65.9018   92.0958   12.1369 C.3     1  UNL1        0.0031
     28 C          67.3312   92.3805   12.4912 C.3     1  UNL1        0.0155
     29 H          69.4300   92.1158   15.2011 H       1  UNL1        0.1188
     30 H          69.4533   93.3671   14.1020 H       1  UNL1        0.1188
@<TRIPOS>BOND
     1    23    22    1
     2    23    24    1
     3    24    25    1
     4    25    26    1
     5    26    21    1
     6    21    19    1
     7    19     1    1
     8     1     2   ar
     9     2     3   ar
    10     3     4    1
    11     3     5   ar
    12     5     9    1
    13     9    10    2
    14     9    11    2
    15     9    12    1
    16    12    14    1
    17    14    15   ar
    18    15    16   ar
    19    16    17   ar
    20    17    18   ar
    21     5     6   ar
    22     6     7   ar
    23     7     8    1
    24    26    27    1
    25    27    28    1
    26    28    23    1
    27     7     1   ar
    28    18    14   ar
    29    22    29    1
    30    22    30    1
    31    19    20    1
    32    12    13    1
@<TRIPOS>MOLECULE
*****
 30 32 0 0 0
SMALL
GASTEIGER

@<TRIPOS>ATOM
      1 C          63.0606   89.4230   12.2480 C.ar    1  UNL1        0.0577
      2 C          62.9865   90.3615   11.0802 C.ar    1  UNL1        0.0462
      3 C          63.9139   91.5380   11.0035 C.ar    1  UNL1        0.1602
      4 F          63.8398   92.4765    9.8358 F       1  UNL1       -0.2027
      5 C          64.9155   91.7758   12.0945 C.ar    1  UNL1        0.1534
      6 C          64.9896   90.8373   13.2623 C.ar    1  UNL1        0.0351
      7 C          64.0622   89.6609   13.3390 C.ar    1  UNL1        0.0722
      8 CL         64.1363   88.7223   14.5067 Cl      1  UNL1       -0.0809
      9 S          65.8429   92.9523   12.0178 S.O2    1  UNL1        0.0772
     10 O          66.3441   92.4704   10.6886 O.2     1  UNL1       -0.1498
     11 O          65.3418   93.4341   13.3470 O.2     1  UNL1       -0.1498
     12 N          66.7704   94.1287   11.9410 N.pl3   1  UNL1       -0.1936
     13 H          67.4099   94.2997   12.6697 H       1  UNL1        0.1758
     14 C          66.7233   95.0446   10.7540 C.ar    1  UNL1        0.1786
     15 N          67.7854   95.1819    9.7037 N.ar    1  UNL1       -0.2214
     16 C          67.3245   96.2061    8.7095 C.ar    1  UNL1        0.1079
     17 C          65.9775   96.7019    9.1454 C.ar    1  UNL1        0.0588
     18 S          65.6060   95.9840   10.4090 S.2     1  UNL1       -0.0497
     19 N          62.1332   88.2465   12.3248 N.pl3   1  UNL1       -0.3319
     20 H          61.4559   88.1994   13.0377 H       1  UNL1        0.1468
     21 C          62.2378   87.1420   11.3154 C.3     1  UNL1        0.0870
     22 N          64.2249   81.7319   12.9833 N.3     1  UNL1       -0.3222
     23 C          63.7281   83.0844   12.5663 C.3     1  UNL1        0.0508
     24 C          63.8147   84.2411   13.5173 C.3     1  UNL1        0.0155
     25 C          63.3179   85.5937   13.1003 C.3     1  UNL1        0.0031
     26 C          62.7346   85.7895   11.7324 C.3     1  UNL1        0.0196
     27 C          62.6480   84.6327   10.7814 C.3     1  UNL1        0.0031
     28 C          63.1448   83.2802   11.1984 C.3     1  UNL1        0.0155
     29 H          64.5855   81.7810   13.9361 H       1  UNL1        0.1188
     30 H          64.9694   81.4339   12.3529 H       1  UNL1        0.1188
@<TRIPOS>BOND
     1    23    22    1
     2    23    24    1
     3    24    25    1
     4    25    26    1
     5    26    21    1
     6    21    19    1
     7    19     1    1
     8     1     2   ar
     9     2     3   ar
    10     3     4    1
    11     3     5   ar
    12     5     9    1
    13     9    10    2
    14     9    11    2
    15     9    12    1
    16    12    14    1
    17    14    15   ar
    18    15    16   ar
    19    16    17   ar
    20    17    18   ar
    21     5     6   ar
    22     6     7   ar
    23     7     8    1
    24    26    27    1
    25    27    28    1
    26    28    23    1
    27     7     1   ar
    28    18    14   ar
    29    22    29    1
    30    22    30    1
    31    19    20    1
    32    12    13    1
@<TRIPOS>MOLECULE
*****
 30 32 0 0 0
SMALL
GASTEIGER

@<TRIPOS>ATOM
      1 C          62.6331   88.3028   11.8391 C.ar    1  UNL1        0.0577
      2 C          62.3713   89.3005   10.7501 C.ar    1  UNL1        0.0462
      3 C          63.0729   90.6263   10.7630 C.ar    1  UNL1        0.1602
      4 F          62.8111   91.6240    9.6740 F       1  UNL1       -0.2027
      5 C          64.0363   90.9542   11.8650 C.ar    1  UNL1        0.1534
      6 C          64.2981   89.9565   12.9539 C.ar    1  UNL1        0.0351
      7 C          63.5965   88.6307   12.9410 C.ar    1  UNL1        0.0722
      8 CL         63.8583   87.6330   14.0300 Cl      1  UNL1       -0.0809
      9 S          64.7380   92.2799   11.8779 S.O2    1  UNL1        0.0772
     10 O          64.8775   92.1915   13.3688 O.2     1  UNL1       -0.1498
     11 O          64.5984   92.3683   10.3870 O.2     1  UNL1       -0.1498
     12 N          65.4396   93.6056   11.8908 N.pl3   1  UNL1       -0.1936
     13 H          65.2481   94.2570   12.6037 H       1  UNL1        0.1758
     14 C          66.4331   93.9389   10.8175 C.ar    1  UNL1        0.1786
     15 N          66.6162   95.2801   10.1712 N.ar    1  UNL1       -0.2214
     16 C          67.7141   95.1597    9.1563 C.ar    1  UNL1        0.1079
     17 C          68.2096   93.7439    9.1753 C.ar    1  UNL1        0.0588
     18 S          67.4178   92.9895   10.2020 S.2     1  UNL1       -0.0497
     19 N          61.9314   86.9770   11.8262 N.pl3   1  UNL1       -0.3319
     20 H          61.0447   86.8853   12.2440 H       1  UNL1        0.1468
     21 C          62.5808   85.7911   11.1768 C.3     1  UNL1        0.0870
     22 N          63.1049   80.6314   14.1938 N.3     1  UNL1       -0.3222
     23 C          62.9739   81.9213   13.4395 C.3     1  UNL1        0.0508
     24 C          62.6998   83.1976   14.1784 C.3     1  UNL1        0.0155
     25 C          62.5688   84.4875   13.4241 C.3     1  UNL1        0.0031
     26 C          62.7118   84.5012   11.9310 C.3     1  UNL1        0.0196
     27 C          62.9859   83.2249   11.1922 C.3     1  UNL1        0.0031
     28 C          63.1169   81.9349   11.9465 C.3     1  UNL1        0.0155
     29 H          62.9802   80.8064   15.1909 H       1  UNL1        0.1188
     30 H          64.0306   80.2350   14.0313 H       1  UNL1        0.1188
@<TRIPOS>BOND
     1    23    22    1
     2    23    24    1
     3    24    25    1
     4    25    26    1
     5    26    21    1
     6    21    19    1
     7    19     1    1
     8     1     2   ar
     9     2     3   ar
    10     3     4    1
    11     3     5   ar
    12     5     9    1
    13     9    10    2
    14     9    11    2
    15     9    12    1
    16    12    14    1
    17    14    15   ar
    18    15    16   ar
    19    16    17   ar
    20    17    18   ar
    21     5     6   ar
    22     6     7   ar
    23     7     8    1
    24    26    27    1
    25    27    28    1
    26    28    23    1
    27     7     1   ar
    28    18    14   ar
    29    22    29    1
    30    22    30    1
    31    19    20    1
    32    12    13    1
@<TRIPOS>MOLECULE
*****
 30 32 0 0 0
SMALL
GASTEIGER

@<TRIPOS>ATOM
      1 C          62.5067   87.7971   11.9230 C.ar    1  UNL1        0.0577
      2 C          62.2332   88.9744   11.0345 C.ar    1  UNL1        0.0462
      3 C          62.9487   90.2720   11.2674 C.ar    1  UNL1        0.1602
      4 F          62.6752   91.4492   10.3790 F       1  UNL1       -0.2027
      5 C          63.9379   90.3923   12.3886 C.ar    1  UNL1        0.1534
      6 C          64.2114   89.2151   13.2770 C.ar    1  UNL1        0.0351
      7 C          63.4958   87.9175   13.0442 C.ar    1  UNL1        0.0722
      8 CL         63.7694   86.7403   13.9326 Cl      1  UNL1       -0.0809
      9 S          64.6534   91.6899   12.6215 S.O2    1  UNL1        0.0772
     10 O          64.1903   91.6893   14.0482 O.2     1  UNL1       -0.1498
     11 O          65.1165   91.6906   11.1947 O.2     1  UNL1       -0.1498
     12 N          65.3690   92.9875   12.8543 N.pl3   1  UNL1       -0.1936
     13 H          65.0536   93.8095   12.4137 H       1  UNL1        0.1758
     14 C          66.5650   93.0327   13.7585 C.ar    1  UNL1        0.1786
     15 N          66.8175   94.0446   14.8366 N.ar    1  UNL1       -0.2214
     16 C          68.1270   93.7113   15.4877 C.ar    1  UNL1        0.1079
     17 C          68.6839   92.4934   14.8119 C.ar    1  UNL1        0.0588
     18 S          67.7185   92.0740   13.7432 S.2     1  UNL1       -0.0497
     19 N          61.7912   86.4995   11.6902 N.pl3   1  UNL1       -0.3319
     20 H          60.8431   86.4085   11.9395 H       1  UNL1        0.1468
     21 C          62.5201   85.3405   11.0775 C.3     1  UNL1        0.0870
     22 N          63.3536   80.3101   14.2398 N.3     1  UNL1       -0.3222
     23 C          63.1452   81.5677   13.4492 C.3     1  UNL1        0.0508
     24 C          63.5041   81.6065   11.9934 C.3     1  UNL1        0.0155
     25 C          63.2958   82.8641   11.2028 C.3     1  UNL1        0.0031
     26 C          62.7284   84.0829   11.8681 C.3     1  UNL1        0.0196
     27 C          62.3695   84.0441   13.3239 C.3     1  UNL1        0.0031
     28 C          62.5779   82.7865   14.1145 C.3     1  UNL1        0.0155
     29 H          63.7437   79.5883   13.6339 H       1  UNL1        0.1188
     30 H          62.4599   79.9925   14.6152 H       1  UNL1        0.1188
@<TRIPOS>BOND
     1    23    22    1
     2    23    24    1
     3    24    25    1
     4    25    26    1
     5    26    21    1
     6    21    19    1
     7    19     1    1
     8     1     2   ar
     9     2     3   ar
    10     3     4    1
    11     3     5   ar
    12     5     9    1
    13     9    10    2
    14     9    11    2
    15     9    12    1
    16    12    14    1
    17    14    15   ar
    18    15    16   ar
    19    16    17   ar
    20    17    18   ar
    21     5     6   ar
    22     6     7   ar
    23     7     8    1
    24    26    27    1
    25    27    28    1
    26    28    23    1
    27     7     1   ar
    28    18    14   ar
    29    22    29    1
    30    22    30    1
    31    19    20    1
    32    12    13    1
