@<TRIPOS>MOLECULE
*****
 40 44 0 0 0
SMALL
GASTEIGER

@<TRIPOS>ATOM
      1 C          62.9021   90.8275   11.1216 C.2     1  UNL1        0.2246
      2 O          63.7968   90.3965    9.9974 O.2     1  UNL1       -0.2750
      3 N          61.5575   90.1866   11.2979 N.am    1  UNL1       -0.3022
      4 H          60.9703   90.4695   12.0358 H       1  UNL1        0.1497
      5 C          61.1075   89.1146   10.3501 C.3     1  UNL1        0.0938
      6 C          60.1194   89.4364    9.2683 C.3     1  UNL1        0.0245
      7 C          59.6695   88.3645    8.3205 C.3     1  UNL1        0.0067
      8 C          60.2076   86.9707    8.4544 C.3     1  UNL1        0.0261
      9 C          61.1956   86.6490    9.5361 C.ar    1  UNL1       -0.0249
     10 C          61.7337   85.2552    9.6700 C.ar    1  UNL1       -0.0074
     11 C          62.7218   84.9334   10.7517 C.ar    1  UNL1       -0.0065
     12 C          63.1718   86.0054   11.6996 C.ar    1  UNL1       -0.0032
     13 C          62.6337   87.3991   11.5657 C.ar    1  UNL1       -0.0033
     14 C          61.6456   87.7209   10.4840 C.ar    1  UNL1       -0.0085
     15 C          63.2598   83.5397   10.8856 C.3     1  UNL1        0.0991
     16 N          62.8385   82.6808   12.0409 N.3     1  UNL1       -0.2690
     17 C          62.7737   81.1906   11.8831 C.3     1  UNL1        0.0724
     18 C          62.3523   80.3316   13.0385 C.3     1  UNL1        0.0174
     19 C          61.9958   80.9630   14.3516 C.3     1  UNL1        0.0029
     20 C          62.0606   82.4533   14.5094 C.3     1  UNL1        0.0174
     21 C          62.4820   83.3122   13.3541 C.3     1  UNL1        0.0724
     22 C          63.3522   91.8995   12.0694 C.3     1  UNL1        0.1120
     23 N          65.7316   92.2024   13.0677 N.3     1  UNL1       -0.1459
     24 C          66.7450   91.8887   14.1282 C.3     1  UNL1        0.1175
     25 C          66.3924   90.9585   15.2509 C.3     1  UNL1        0.1086
     26 N          65.0264   90.3420   15.3131 N.am    1  UNL1       -0.3018
     27 C          64.0130   90.6556   14.2526 C.2     1  UNL1        0.2392
     28 O          62.6469   90.0391   14.3148 O.2     1  UNL1       -0.2736
     29 C          64.3656   91.5858   13.1299 C.3     1  UNL1        0.1645
     30 H          64.7949   89.7315   16.0499 H       1  UNL1        0.1495
     31 S          66.0842   93.1325   11.9450 S.O2    1  UNL1        0.0637
     32 O          66.3782   91.9559   11.0625 O.2     1  UNL1       -0.1528
     33 O          65.7903   94.3092   12.8276 O.2     1  UNL1       -0.1528
     34 C          67.4947   96.8533    7.4543 C.3     1  UNL1        0.0310
     35 C          67.1421   95.9231    8.5770 C.ar    1  UNL1       -0.0218
     36 C          67.5271   94.4754    8.5005 C.ar    1  UNL1       -0.0029
     37 C          67.1745   93.5452    9.6232 C.ar    1  UNL1        0.0196
     38 C          66.4368   94.0627   10.8224 C.ar    1  UNL1        0.1222
     39 C          66.0518   95.5105   10.8988 C.ar    1  UNL1        0.0196
     40 C          66.4044   96.4406    9.7762 C.ar    1  UNL1       -0.0029
@<TRIPOS>BOND
     1    34    35    1
     2    35    36   ar
     3    36    37   ar
     4    37    38   ar
     5    38    31    1
     6    31    32    2
     7    31    33    2
     8    31    23    1
     9    23    24    1
    10    24    25    1
    11    25    26    1
    12    26    27   am
    13    27    28    2
    14    27    29    1
    15    29    22    1
    16    22     1    1
    17     1     2    2
    18     1     3   am
    19     5     3    1
    20     5     6    1
    21     6     7    1
    22     7     8    1
    23     8     9    1
    24     9    10   ar
    25    10    11   ar
    26    11    15    1
    27    15    16    1
    28    16    17    1
    29    17    18    1
    30    18    19    1
    31    19    20    1
    32    20    21    1
    33    11    12   ar
    34    12    13   ar
    35    13    14   ar
    36    38    39   ar
    37    39    40   ar
    38    40    35   ar
    39    29    23    1
    40    14     5    1
    41    14     9   ar
    42    21    16    1
    43    26    30    1
    44     3     4    1
@<TRIPOS>MOLECULE
*****
 40 44 0 0 0
SMALL
GASTEIGER

@<TRIPOS>ATOM
      1 C          63.8087   91.0744   11.9907 C.2     1  UNL1        0.2246
      2 O          63.9784   91.0018   10.5020 O.2     1  UNL1       -0.2750
      3 N          63.1874   89.9275   12.7314 N.am    1  UNL1       -0.3022
      4 H          63.0759   89.9751   13.7084 H       1  UNL1        0.1497
      5 C          62.7358   88.7082   11.9835 C.3     1  UNL1        0.0938
      6 C          61.9216   88.8545   10.7322 C.3     1  UNL1        0.0245
      7 C          61.4701   87.6352    9.9844 C.3     1  UNL1        0.0067
      8 C          61.8327   86.2695   10.4878 C.3     1  UNL1        0.0261
      9 C          62.6468   86.1232   11.7391 C.ar    1  UNL1       -0.0249
     10 C          63.0093   84.7575   12.2426 C.ar    1  UNL1       -0.0074
     11 C          63.8234   84.6111   13.4939 C.ar    1  UNL1       -0.0065
     12 C          64.2750   85.8305   14.2418 C.ar    1  UNL1       -0.0032
     13 C          63.9125   87.1962   13.7383 C.ar    1  UNL1       -0.0033
     14 C          63.0983   87.3425   12.4870 C.ar    1  UNL1       -0.0085
     15 C          64.1860   83.2454   13.9973 C.3     1  UNL1        0.0991
     16 N          63.2427   82.0968   13.7954 N.3     1  UNL1       -0.2690
     17 C          61.8978   82.1052   14.4596 C.3     1  UNL1        0.0724
     18 C          60.9544   80.9565   14.2577 C.3     1  UNL1        0.0174
     19 C          61.3560   79.7995   13.3916 C.3     1  UNL1        0.0029
     20 C          62.7010   79.7912   12.7274 C.3     1  UNL1        0.0174
     21 C          63.6443   80.9398   12.9293 C.3     1  UNL1        0.0724
     22 C          64.2603   92.2937   12.7385 C.3     1  UNL1        0.1120
     23 N          66.7452   93.0087   12.9916 N.3     1  UNL1       -0.1459
     24 C          68.0325   92.9827   13.7611 C.3     1  UNL1        0.1175
     25 C          68.1223   92.2155   15.0470 C.3     1  UNL1        0.1086
     26 N          66.9247   91.4744   15.5633 N.am    1  UNL1       -0.3018
     27 C          65.6374   91.5005   14.7938 C.2     1  UNL1        0.2392
     28 O          64.4398   90.7594   15.3102 O.2     1  UNL1       -0.2736
     29 C          65.5476   92.2676   13.5080 C.3     1  UNL1        0.1645
     30 H          66.9836   90.9709   16.4073 H       1  UNL1        0.1495
     31 S          66.6554   93.7759   11.7058 S.O2    1  UNL1        0.0637
     32 O          66.8674   92.5072   10.9341 O.2     1  UNL1       -0.1528
     33 O          66.4434   95.0445   12.4774 O.2     1  UNL1       -0.1528
     34 C          66.2963   96.8444    6.5624 C.3     1  UNL1        0.0310
     35 C          66.3861   96.0773    7.8482 C.ar    1  UNL1       -0.0218
     36 C          65.4516   96.3947    8.9777 C.ar    1  UNL1       -0.0029
     37 C          65.5413   95.6276   10.2636 C.ar    1  UNL1        0.0196
     38 C          66.5656   94.5430   10.4199 C.ar    1  UNL1        0.1222
     39 C          67.5002   94.2256    9.2904 C.ar    1  UNL1        0.0196
     40 C          67.4105   94.9927    8.0045 C.ar    1  UNL1       -0.0029
@<TRIPOS>BOND
     1    34    35    1
     2    35    36   ar
     3    36    37   ar
     4    37    38   ar
     5    38    31    1
     6    31    32    2
     7    31    33    2
     8    31    23    1
     9    23    24    1
    10    24    25    1
    11    25    26    1
    12    26    27   am
    13    27    28    2
    14    27    29    1
    15    29    22    1
    16    22     1    1
    17     1     2    2
    18     1     3   am
    19     5     3    1
    20     5     6    1
    21     6     7    1
    22     7     8    1
    23     8     9    1
    24     9    10   ar
    25    10    11   ar
    26    11    15    1
    27    15    16    1
    28    16    17    1
    29    17    18    1
    30    18    19    1
    31    19    20    1
    32    20    21    1
    33    11    12   ar
    34    12    13   ar
    35    13    14   ar
    36    38    39   ar
    37    39    40   ar
    38    40    35   ar
    39    29    23    1
    40    14     5    1
    41    14     9   ar
    42    21    16    1
    43    26    30    1
    44     3     4    1
@<TRIPOS>MOLECULE
*****
 40 44 0 0 0
SMALL
GASTEIGER

@<TRIPOS>ATOM
      1 C          62.9153   90.8417   11.2294 C.2     1  UNL1        0.2246
      2 O          63.6007   90.7297    9.8999 O.2     1  UNL1       -0.2750
      3 N          61.7642   89.9379   11.5583 N.am    1  UNL1       -0.3022
      4 H          61.3143   90.0114   12.4309 H       1  UNL1        0.1497
      5 C          61.2985   88.9221   10.5575 C.3     1  UNL1        0.0938
      6 C          60.3403   89.3207    9.4746 C.3     1  UNL1        0.0245
      7 C          59.8747   88.3049    8.4739 C.3     1  UNL1        0.0067
      8 C          60.3674   86.8905    8.5562 C.3     1  UNL1        0.0261
      9 C          61.3257   86.4919    9.6391 C.ar    1  UNL1       -0.0249
     10 C          61.8184   85.0775    9.7214 C.ar    1  UNL1       -0.0074
     11 C          62.7766   84.6789   10.8043 C.ar    1  UNL1       -0.0065
     12 C          63.2423   85.6947   11.8050 C.ar    1  UNL1       -0.0032
     13 C          62.7496   87.1091   11.7228 C.ar    1  UNL1       -0.0033
     14 C          61.7912   87.5077   10.6398 C.ar    1  UNL1       -0.0085
     15 C          63.2693   83.2645   10.8866 C.3     1  UNL1        0.0991
     16 N          62.8335   82.3832   12.0193 N.3     1  UNL1       -0.2690
     17 C          62.4482   82.9897   13.3360 C.3     1  UNL1        0.0724
     18 C          62.0124   82.1083   14.4689 C.3     1  UNL1        0.0174
     19 C          61.9618   80.6205   14.2850 C.3     1  UNL1        0.0029
     20 C          62.3471   80.0140   12.9682 C.3     1  UNL1        0.0174
     21 C          62.7829   80.8954   11.8354 C.3     1  UNL1        0.0724
     22 C          63.3809   91.8574   12.2301 C.3     1  UNL1        0.1120
     23 N          65.6404   91.3914   13.4249 N.3     1  UNL1       -0.1459
     24 C          67.1058   91.6682   13.5864 C.3     1  UNL1        0.1175
     25 C          67.7770   92.6877   12.7144 C.3     1  UNL1        0.1086
     26 N          66.9829   93.4303   11.6811 N.am    1  UNL1       -0.3018
     27 C          65.5175   93.1536   11.5197 C.2     1  UNL1        0.2392
     28 O          64.7234   93.8963   10.4863 O.2     1  UNL1       -0.2736
     29 C          64.8463   92.1342   12.3915 C.3     1  UNL1        0.1645
     30 H          67.4235   94.0994   11.1089 H       1  UNL1        0.1495
     31 S          64.9692   90.3720   14.2968 S.O2    1  UNL1        0.0637
     32 O          65.2634   91.2113   15.5046 O.2     1  UNL1       -0.1528
     33 O          64.6750   89.5327   13.0889 O.2     1  UNL1       -0.1528
     34 C          62.2841   86.2943   17.7842 C.3     1  UNL1        0.0310
     35 C          62.9554   87.3137   16.9123 C.ar    1  UNL1       -0.0218
     36 C          62.7928   88.7756   17.2062 C.ar    1  UNL1       -0.0029
     37 C          63.4641   89.7951   16.3344 C.ar    1  UNL1        0.0196
     38 C          64.2979   89.3526   15.1686 C.ar    1  UNL1        0.1222
     39 C          64.4604   87.8906   14.8747 C.ar    1  UNL1        0.0196
     40 C          63.7892   86.8712   15.7466 C.ar    1  UNL1       -0.0029
@<TRIPOS>BOND
     1    34    35    1
     2    35    36   ar
     3    36    37   ar
     4    37    38   ar
     5    38    31    1
     6    31    32    2
     7    31    33    2
     8    31    23    1
     9    23    24    1
    10    24    25    1
    11    25    26    1
    12    26    27   am
    13    27    28    2
    14    27    29    1
    15    29    22    1
    16    22     1    1
    17     1     2    2
    18     1     3   am
    19     5     3    1
    20     5     6    1
    21     6     7    1
    22     7     8    1
    23     8     9    1
    24     9    10   ar
    25    10    11   ar
    26    11    15    1
    27    15    16    1
    28    16    17    1
    29    17    18    1
    30    18    19    1
    31    19    20    1
    32    20    21    1
    33    11    12   ar
    34    12    13   ar
    35    13    14   ar
    36    38    39   ar
    37    39    40   ar
    38    40    35   ar
    39    29    23    1
    40    14     5    1
    41    14     9   ar
    42    21    16    1
    43    26    30    1
    44     3     4    1
@<TRIPOS>MOLECULE
*****
 40 44 0 0 0
SMALL
GASTEIGER

@<TRIPOS>ATOM
      1 C          63.6059   90.5974   11.7562 C.2     1  UNL1        0.2246
      2 O          63.9793   90.4561   10.3103 O.2     1  UNL1       -0.2750
      3 N          62.8310   89.5104   12.4403 N.am    1  UNL1       -0.3022
      4 H          62.5859   89.6030   13.3892 H       1  UNL1        0.1497
      5 C          62.4295   88.2821   11.6784 C.3     1  UNL1        0.0938
      6 C          62.9288   86.9352   12.1101 C.3     1  UNL1        0.0245
      7 C          62.5273   85.7071   11.3482 C.3     1  UNL1        0.0067
      8 C          61.6266   85.8259   10.1547 C.3     1  UNL1        0.0261
      9 C          61.1274   87.1728    9.7229 C.ar    1  UNL1       -0.0249
     10 C          60.2267   87.2917    8.5294 C.ar    1  UNL1       -0.0074
     11 C          59.7274   88.6386    8.0976 C.ar    1  UNL1       -0.0065
     12 C          60.1289   89.8668    8.8595 C.ar    1  UNL1       -0.0032
     13 C          61.0296   89.7480   10.0531 C.ar    1  UNL1       -0.0033
     14 C          61.5288   88.4010   10.4848 C.ar    1  UNL1       -0.0085
     15 C          58.8267   88.7574    6.9041 C.3     1  UNL1        0.0991
     16 N          58.9449   89.9410    5.9902 N.3     1  UNL1       -0.2690
     17 C          60.2886   90.3518    5.4651 C.3     1  UNL1        0.0724
     18 C          60.4068   91.5354    4.5511 C.3     1  UNL1        0.0174
     19 C          59.1814   92.3080    4.1623 C.3     1  UNL1        0.0029
     20 C          57.8376   91.8971    4.6874 C.3     1  UNL1        0.0174
     21 C          57.7195   90.7136    5.6013 C.3     1  UNL1        0.0724
     22 C          64.0073   91.8255   12.5180 C.3     1  UNL1        0.1120
     23 N          66.4237   92.6146   13.0552 N.3     1  UNL1       -0.1459
     24 C          67.6328   92.5850   13.9424 C.3     1  UNL1        0.1175
     25 C          67.6346   91.7369   15.1797 C.3     1  UNL1        0.1086
     26 N          66.4274   90.9184   15.5297 N.am    1  UNL1       -0.3018
     27 C          65.2183   90.9479   14.6424 C.2     1  UNL1        0.2392
     28 O          64.0110   90.1293   14.9925 O.2     1  UNL1       -0.2736
     29 C          65.2164   91.7960   13.4052 C.3     1  UNL1        0.1645
     30 H          66.4286   90.3617   16.3417 H       1  UNL1        0.1495
     31 S          66.4219   93.4626   11.8180 S.O2    1  UNL1        0.0637
     32 O          66.7562   92.2568   10.9909 O.2     1  UNL1       -0.1528
     33 O          66.0875   94.6685   12.6451 O.2     1  UNL1       -0.1528
     34 C          66.4144   96.8550    6.8691 C.3     1  UNL1        0.0310
     35 C          66.4163   96.0069    8.1063 C.ar    1  UNL1       -0.0218
     36 C          67.1816   94.7172    8.1303 C.ar    1  UNL1       -0.0029
     37 C          67.1835   93.8690    9.3676 C.ar    1  UNL1        0.0196
     38 C          66.4200   94.3107   10.5808 C.ar    1  UNL1        0.1222
     39 C          65.6546   95.6006   10.5568 C.ar    1  UNL1        0.0196
     40 C          65.6528   96.4487    9.3196 C.ar    1  UNL1       -0.0029
@<TRIPOS>BOND
     1    34    35    1
     2    35    36   ar
     3    36    37   ar
     4    37    38   ar
     5    38    31    1
     6    31    32    2
     7    31    33    2
     8    31    23    1
     9    23    24    1
    10    24    25    1
    11    25    26    1
    12    26    27   am
    13    27    28    2
    14    27    29    1
    15    29    22    1
    16    22     1    1
    17     1     2    2
    18     1     3   am
    19     5     3    1
    20     5     6    1
    21     6     7    1
    22     7     8    1
    23     8     9    1
    24     9    10   ar
    25    10    11   ar
    26    11    15    1
    27    15    16    1
    28    16    17    1
    29    17    18    1
    30    18    19    1
    31    19    20    1
    32    20    21    1
    33    11    12   ar
    34    12    13   ar
    35    13    14   ar
    36    38    39   ar
    37    39    40   ar
    38    40    35   ar
    39    29    23    1
    40    14     5    1
    41    14     9   ar
    42    21    16    1
    43    26    30    1
    44     3     4    1
@<TRIPOS>MOLECULE
*****
 40 44 0 0 0
SMALL
GASTEIGER

@<TRIPOS>ATOM
      1 C          63.4929   84.0723   11.0120 C.2     1  UNL1        0.2246
      2 O          63.9265   84.1899    9.5808 O.2     1  UNL1       -0.2750
      3 N          62.4380   84.9908   11.5538 N.am    1  UNL1       -0.3022
      4 H          62.1534   84.9137   12.4931 H       1  UNL1        0.1497
      5 C          61.8168   86.0269   10.6645 C.3     1  UNL1        0.0938
      6 C          60.8676   85.6124    9.5796 C.3     1  UNL1        0.0245
      7 C          60.2465   86.6484    8.6904 C.3     1  UNL1        0.0067
      8 C          60.5746   88.0989    8.8860 C.3     1  UNL1        0.0261
      9 C          61.5238   88.5135    9.9709 C.ar    1  UNL1       -0.0249
     10 C          61.8520   89.9640   10.1666 C.ar    1  UNL1       -0.0074
     11 C          62.8012   90.3785   11.2515 C.ar    1  UNL1       -0.0065
     12 C          63.4224   89.3425   12.1408 C.ar    1  UNL1       -0.0032
     13 C          63.0943   87.8919   11.9451 C.ar    1  UNL1       -0.0033
     14 C          62.1450   87.4774   10.8602 C.ar    1  UNL1       -0.0085
     15 C          63.1293   91.8290   11.4471 C.3     1  UNL1        0.0991
     16 N          64.5490   92.2516   11.6838 N.3     1  UNL1       -0.2690
     17 C          65.3872   92.7388   10.5393 C.3     1  UNL1        0.0724
     18 C          66.8069   93.1614   10.7760 C.3     1  UNL1        0.0174
     19 C          67.3883   93.0966   12.1572 C.3     1  UNL1        0.0029
     20 C          66.5500   92.6093   13.3017 C.3     1  UNL1        0.0174
     21 C          65.1304   92.1868   13.0650 C.3     1  UNL1        0.0724
     22 C          64.1141   83.0363   11.9012 C.3     1  UNL1        0.1120
     23 N          62.5817   82.1878   13.8201 N.3     1  UNL1       -0.1459
     24 C          61.7311   81.1092   14.4227 C.3     1  UNL1        0.1175
     25 C          61.5624   79.8006   13.7093 C.3     1  UNL1        0.1086
     26 N          62.2443   79.5705   12.3932 N.am    1  UNL1       -0.3018
     27 C          63.0948   80.6491   11.7905 C.2     1  UNL1        0.2392
     28 O          63.7767   80.4190   10.4743 O.2     1  UNL1       -0.2736
     29 C          63.2635   81.9577   12.5039 C.3     1  UNL1        0.1645
     30 H          62.1335   78.7116   11.9249 H       1  UNL1        0.1495
     31 S          62.7504   83.4964   14.5335 S.O2    1  UNL1        0.0637
     32 O          61.4476   83.9747   13.9644 O.2     1  UNL1       -0.1528
     33 O          64.0532   83.0182   15.1026 O.2     1  UNL1       -0.1528
     34 C          63.4252   88.7310   17.3872 C.3     1  UNL1        0.0310
     35 C          63.2565   87.4224   16.6738 C.ar    1  UNL1       -0.0218
     36 C          64.0784   87.1208   15.4558 C.ar    1  UNL1       -0.0029
     37 C          63.9097   85.8121   14.7423 C.ar    1  UNL1        0.0196
     38 C          62.9191   84.8051   15.2469 C.ar    1  UNL1        0.1222
     39 C          62.0972   85.1067   16.4649 C.ar    1  UNL1        0.0196
     40 C          62.2659   86.4153   17.1783 C.ar    1  UNL1       -0.0029
@<TRIPOS>BOND
     1    34    35    1
     2    35    36   ar
     3    36    37   ar
     4    37    38   ar
     5    38    31    1
     6    31    32    2
     7    31    33    2
     8    31    23    1
     9    23    24    1
    10    24    25    1
    11    25    26    1
    12    26    27   am
    13    27    28    2
    14    27    29    1
    15    29    22    1
    16    22     1    1
    17     1     2    2
    18     1     3   am
    19     5     3    1
    20     5     6    1
    21     6     7    1
    22     7     8    1
    23     8     9    1
    24     9    10   ar
    25    10    11   ar
    26    11    15    1
    27    15    16    1
    28    16    17    1
    29    17    18    1
    30    18    19    1
    31    19    20    1
    32    20    21    1
    33    11    12   ar
    34    12    13   ar
    35    13    14   ar
    36    38    39   ar
    37    39    40   ar
    38    40    35   ar
    39    29    23    1
    40    14     5    1
    41    14     9   ar
    42    21    16    1
    43    26    30    1
    44     3     4    1
