@<TRIPOS>MOLECULE
*****
 33 37 0 0 0
SMALL
GASTEIGER

@<TRIPOS>ATOM
      1 C          62.8501   86.9029   12.0281 C.2     1  UNL1        0.2506
      2 O          63.6511   87.4590   13.1680 O.2     1  UNL1       -0.2699
      3 N          61.9163   87.7932   11.2632 N.am    1  UNL1       -0.2723
      4 C          61.1152   87.2372   10.1233 C.3     1  UNL1        0.1257
      5 C          60.1814   88.1275    9.3583 C.3     1  UNL1        0.1637
      6 O          60.0484   89.5738    9.7332 O.3     1  UNL1       -0.3502
      7 C          60.8494   90.1299   10.8730 C.3     1  UNL1        0.1622
      8 C          61.7833   89.2395   11.6381 C.3     1  UNL1        0.1096
      9 C          63.3818   81.1177   10.5286 C.3     1  UNL1        0.0311
     10 C          63.2489   82.5640   10.9035 C.ar    1  UNL1       -0.0203
     11 C          63.1323   83.6085    9.8333 C.ar    1  UNL1       -0.0040
     12 C          62.9994   85.0549   10.2082 C.ar    1  UNL1        0.0058
     13 C          62.9830   85.4566   11.6533 C.ar    1  UNL1        0.0729
     14 C          63.0996   84.4121   12.7235 C.ar    1  UNL1        0.1069
     15 C          63.2325   82.9658   12.3486 C.ar    1  UNL1        0.0168
     16 N          63.0832   84.8139   14.1686 N.ar    1  UNL1       -0.1477
     17 N          61.8856   84.8081   15.0718 N.ar    1  UNL1       -0.1447
     18 C          62.3237   85.2826   16.4256 C.ar    1  UNL1        0.1446
     19 C          63.7922   85.5816   16.3592 C.ar    1  UNL1        0.1446
     20 N          64.2615   85.2919   14.9642 N.ar    1  UNL1       -0.1447
     21 C          62.5843   89.7956   12.7779 C.3     1  UNL1        0.0488
     22 C          63.7087   90.7511   12.5086 C.ar    1  UNL1       -0.0167
     23 C          63.8110   91.4327   11.1764 C.ar    1  UNL1        0.0255
     24 C          64.9354   92.3882   10.9071 C.ar    1  UNL1        0.1414
     25 F          65.0376   93.0699    9.5747 F       1  UNL1       -0.2041
     26 C          65.9577   92.6622   11.9701 C.ar    1  UNL1        0.0505
     27 C          65.8554   91.9806   13.3023 C.ar    1  UNL1        0.1048
     28 C          64.7310   91.0251   13.5716 C.ar    1  UNL1        0.0168
     29 N          66.8777   92.2546   14.3654 N.ar    1  UNL1       -0.1477
     30 N          66.6017   92.4328   15.8289 N.ar    1  UNL1       -0.1447
     31 C          67.9088   92.6868   16.5195 C.ar    1  UNL1        0.1446
     32 C          68.9927   92.6655   15.4827 C.ar    1  UNL1        0.1446
     33 N          68.3554   92.3984   14.1514 N.ar    1  UNL1       -0.1447
@<TRIPOS>BOND
     1     9    10    1
     2    10    11   ar
     3    11    12   ar
     4    12    13   ar
     5    13     1    1
     6     1     2    2
     7     1     3   am
     8     3     4    1
     9     4     5    1
    10     5     6    1
    11     6     7    1
    12     7     8    1
    13     8    21    1
    14    21    22    1
    15    22    23   ar
    16    23    24   ar
    17    24    25    1
    18    24    26   ar
    19    26    27   ar
    20    27    29    1
    21    29    30   ar
    22    30    31   ar
    23    31    32   ar
    24    32    33   ar
    25    27    28   ar
    26    13    14   ar
    27    14    16    1
    28    16    17   ar
    29    17    18   ar
    30    18    19   ar
    31    19    20   ar
    32    14    15   ar
    33    15    10   ar
    34     8     3    1
    35    28    22   ar
    36    20    16   ar
    37    33    29   ar
@<TRIPOS>MOLECULE
*****
 33 37 0 0 0
SMALL
GASTEIGER

@<TRIPOS>ATOM
      1 C          63.1610   87.1432   12.6613 C.2     1  UNL1        0.2506
      2 O          63.7792   87.5820   13.9556 O.2     1  UNL1       -0.2699
      3 N          62.5731   88.1600   11.7283 N.am    1  UNL1       -0.2723
      4 C          61.9548   87.7212   10.4339 C.3     1  UNL1        0.1257
      5 C          61.3668   88.7380    9.5010 C.3     1  UNL1        0.1637
      6 O          61.3971   90.1935    9.8623 O.3     1  UNL1       -0.3502
      7 C          62.0153   90.6323   11.1566 C.3     1  UNL1        0.1622
      8 C          62.6033   89.6155   12.0896 C.3     1  UNL1        0.1096
      9 C          63.0400   81.3211   11.2159 C.3     1  UNL1        0.0311
     10 C          63.0702   82.7767   11.5772 C.ar    1  UNL1       -0.0203
     11 C          63.1329   83.8163   10.4978 C.ar    1  UNL1       -0.0040
     12 C          63.1631   85.2718   10.8591 C.ar    1  UNL1        0.0058
     13 C          63.1307   85.6877   12.2999 C.ar    1  UNL1        0.0729
     14 C          63.0681   84.6481   13.3794 C.ar    1  UNL1        0.1069
     15 C          63.0378   83.1926   13.0180 C.ar    1  UNL1        0.0168
     16 N          63.0357   85.0640   14.8203 N.ar    1  UNL1       -0.1477
     17 N          64.2212   85.4552   15.6518 N.ar    1  UNL1       -0.1447
     18 C          63.7304   85.7947   17.0280 C.ar    1  UNL1        0.1446
     19 C          62.2415   85.6132   17.0469 C.ar    1  UNL1        0.1446
     20 N          61.8122   85.1616   15.6825 N.ar    1  UNL1       -0.1447
     21 C          63.2215   90.0542   13.3839 C.3     1  UNL1        0.0488
     22 C          64.5019   90.8357   13.3767 C.ar    1  UNL1       -0.0167
     23 C          65.4832   90.6780   14.5001 C.ar    1  UNL1        0.0255
     24 C          66.7635   91.4595   14.4928 C.ar    1  UNL1        0.1414
     25 F          67.7448   91.3018   15.6163 F       1  UNL1       -0.2041
     26 C          67.0625   92.3987   13.3622 C.ar    1  UNL1        0.0505
     27 C          66.0812   92.5564   12.2387 C.ar    1  UNL1        0.1048
     28 C          64.8009   91.7749   12.2460 C.ar    1  UNL1        0.0168
     29 N          66.3802   93.4956   11.1080 N.ar    1  UNL1       -0.1477
     30 N          65.6461   94.7670   10.8003 N.ar    1  UNL1       -0.1447
     31 C          66.2780   95.3855    9.5886 C.ar    1  UNL1        0.1446
     32 C          67.4026   94.4962    9.1473 C.ar    1  UNL1        0.1446
     33 N          67.4657   93.3283   10.0864 N.ar    1  UNL1       -0.1447
@<TRIPOS>BOND
     1     9    10    1
     2    10    11   ar
     3    11    12   ar
     4    12    13   ar
     5    13     1    1
     6     1     2    2
     7     1     3   am
     8     3     4    1
     9     4     5    1
    10     5     6    1
    11     6     7    1
    12     7     8    1
    13     8    21    1
    14    21    22    1
    15    22    23   ar
    16    23    24   ar
    17    24    25    1
    18    24    26   ar
    19    26    27   ar
    20    27    29    1
    21    29    30   ar
    22    30    31   ar
    23    31    32   ar
    24    32    33   ar
    25    27    28   ar
    26    13    14   ar
    27    14    16    1
    28    16    17   ar
    29    17    18   ar
    30    18    19   ar
    31    19    20   ar
    32    14    15   ar
    33    15    10   ar
    34     8     3    1
    35    28    22   ar
    36    20    16   ar
    37    33    29   ar
@<TRIPOS>MOLECULE
*****
 33 37 0 0 0
SMALL
GASTEIGER

@<TRIPOS>ATOM
      1 C          63.5261   87.5049   13.3433 C.2     1  UNL1        0.2506
      2 O          63.6807   88.5190   12.2489 O.2     1  UNL1       -0.2699
      3 N          63.4142   87.9529   14.7705 N.am    1  UNL1       -0.2723
      4 C          63.2596   86.9388   15.8649 C.3     1  UNL1        0.1257
      5 C          63.1476   87.3867   17.2921 C.3     1  UNL1        0.1637
      6 O          63.1902   88.8488   17.6248 O.3     1  UNL1       -0.3502
      7 C          63.3448   89.8628   16.5304 C.3     1  UNL1        0.1622
      8 C          63.4567   89.4149   15.1032 C.3     1  UNL1        0.1096
      9 C          63.3558   81.6569   12.0123 C.3     1  UNL1        0.0311
     10 C          63.3984   83.1189   12.3451 C.ar    1  UNL1       -0.0203
     11 C          64.2526   83.6057   13.4779 C.ar    1  UNL1       -0.0040
     12 C          64.2952   85.0677   13.8107 C.ar    1  UNL1        0.0058
     13 C          63.4836   86.0429   13.0106 C.ar    1  UNL1        0.0729
     14 C          62.6294   85.5561   11.8777 C.ar    1  UNL1        0.1069
     15 C          62.5868   84.0941   11.5450 C.ar    1  UNL1        0.0168
     16 N          61.8177   86.5314   11.0776 N.ar    1  UNL1       -0.1477
     17 N          62.0688   86.9274    9.6527 N.ar    1  UNL1       -0.1447
     18 C          61.0188   87.9226    9.2563 C.ar    1  UNL1        0.1446
     19 C          60.1187   88.1416   10.4362 C.ar    1  UNL1        0.1446
     20 N          60.6125   87.2818   11.5618 N.ar    1  UNL1       -0.1447
     21 C          63.6113   90.4290   14.0088 C.3     1  UNL1        0.0488
     22 C          64.9018   91.1784   13.8575 C.ar    1  UNL1       -0.0167
     23 C          65.9676   91.0558   14.9058 C.ar    1  UNL1        0.0255
     24 C          67.2581   91.8053   14.7545 C.ar    1  UNL1        0.1414
     25 F          68.3240   91.6826   15.8029 F       1  UNL1       -0.2041
     26 C          67.4828   92.6773   13.5550 C.ar    1  UNL1        0.0505
     27 C          66.4170   92.7999   12.5067 C.ar    1  UNL1        0.1048
     28 C          65.1265   92.0505   12.6580 C.ar    1  UNL1        0.0168
     29 N          66.6417   93.6720   11.3070 N.ar    1  UNL1       -0.1477
     30 N          67.6393   93.4278   10.2139 N.ar    1  UNL1       -0.1447
     31 C          67.5223   94.5463    9.2212 C.ar    1  UNL1        0.1446
     32 C          66.4523   95.4818    9.7009 C.ar    1  UNL1        0.1446
     33 N          65.9081   94.9414   10.9900 N.ar    1  UNL1       -0.1447
@<TRIPOS>BOND
     1     9    10    1
     2    10    11   ar
     3    11    12   ar
     4    12    13   ar
     5    13     1    1
     6     1     2    2
     7     1     3   am
     8     3     4    1
     9     4     5    1
    10     5     6    1
    11     6     7    1
    12     7     8    1
    13     8    21    1
    14    21    22    1
    15    22    23   ar
    16    23    24   ar
    17    24    25    1
    18    24    26   ar
    19    26    27   ar
    20    27    29    1
    21    29    30   ar
    22    30    31   ar
    23    31    32   ar
    24    32    33   ar
    25    27    28   ar
    26    13    14   ar
    27    14    16    1
    28    16    17   ar
    29    17    18   ar
    30    18    19   ar
    31    19    20   ar
    32    14    15   ar
    33    15    10   ar
    34     8     3    1
    35    28    22   ar
    36    20    16   ar
    37    33    29   ar
@<TRIPOS>MOLECULE
*****
 33 37 0 0 0
SMALL
GASTEIGER

@<TRIPOS>ATOM
      1 C          62.7252   88.5583   11.5981 C.2     1  UNL1        0.2506
      2 O          62.6950   90.0577   11.5717 O.2     1  UNL1       -0.2699
      3 N          63.3636   87.8412   12.7505 N.am    1  UNL1       -0.2723
      4 C          63.3938   86.3416   12.7770 C.3     1  UNL1        0.1257
      5 C          64.0322   85.6245   13.9294 C.3     1  UNL1        0.1637
      6 O          64.6404   86.4069   15.0555 O.3     1  UNL1       -0.3502
      7 C          64.6102   87.9063   15.0291 C.3     1  UNL1        0.1622
      8 C          63.9718   88.6235   13.8766 C.3     1  UNL1        0.1096
      9 C          60.2924   85.4289    7.0938 C.3     1  UNL1        0.0311
     10 C          60.9006   86.2112    8.2199 C.ar    1  UNL1       -0.0203
     11 C          62.3433   86.0115    8.5785 C.ar    1  UNL1       -0.0040
     12 C          62.9515   86.7938    9.7046 C.ar    1  UNL1        0.0058
     13 C          62.1170   87.7759   10.4720 C.ar    1  UNL1        0.0729
     14 C          60.6743   87.9757   10.1134 C.ar    1  UNL1        0.1069
     15 C          60.0661   87.1933    8.9873 C.ar    1  UNL1        0.0168
     16 N          59.8397   88.9578   10.8809 N.ar    1  UNL1       -0.1477
     17 N          59.0775   88.6721   12.1408 N.ar    1  UNL1       -0.1447
     18 C          58.3875   89.9357   12.5618 C.ar    1  UNL1        0.1446
     19 C          58.7233   91.0024   11.5620 C.ar    1  UNL1        0.1446
     20 N          59.6208   90.3980   10.5232 N.ar    1  UNL1       -0.1447
     21 C          63.9416   90.1229   13.8502 C.3     1  UNL1        0.0488
     22 C          65.2241   90.8978   13.7817 C.ar    1  UNL1       -0.0167
     23 C          66.1364   90.9449   14.9714 C.ar    1  UNL1        0.0255
     24 C          67.4189   91.7198   14.9029 C.ar    1  UNL1        0.1414
     25 F          68.3312   91.7669   16.0927 F       1  UNL1       -0.2041
     26 C          67.7891   92.4476   13.6447 C.ar    1  UNL1        0.0505
     27 C          66.8768   92.4005   12.4550 C.ar    1  UNL1        0.1048
     28 C          65.5943   91.6256   12.5235 C.ar    1  UNL1        0.0168
     29 N          67.2471   93.1284   11.1967 N.ar    1  UNL1       -0.1477
     30 N          66.9481   94.5657   10.8890 N.ar    1  UNL1       -0.1447
     31 C          67.4975   94.8722    9.5273 C.ar    1  UNL1        0.1446
     32 C          68.1360   93.6243    8.9934 C.ar    1  UNL1        0.1446
     33 N          67.9812   92.5466   10.0251 N.ar    1  UNL1       -0.1447
@<TRIPOS>BOND
     1     9    10    1
     2    10    11   ar
     3    11    12   ar
     4    12    13   ar
     5    13     1    1
     6     1     2    2
     7     1     3   am
     8     3     4    1
     9     4     5    1
    10     5     6    1
    11     6     7    1
    12     7     8    1
    13     8    21    1
    14    21    22    1
    15    22    23   ar
    16    23    24   ar
    17    24    25    1
    18    24    26   ar
    19    26    27   ar
    20    27    29    1
    21    29    30   ar
    22    30    31   ar
    23    31    32   ar
    24    32    33   ar
    25    27    28   ar
    26    13    14   ar
    27    14    16    1
    28    16    17   ar
    29    17    18   ar
    30    18    19   ar
    31    19    20   ar
    32    14    15   ar
    33    15    10   ar
    34     8     3    1
    35    28    22   ar
    36    20    16   ar
    37    33    29   ar
@<TRIPOS>MOLECULE
*****
 33 37 0 0 0
SMALL
GASTEIGER

@<TRIPOS>ATOM
      1 C          65.0511   91.3285   12.6998 C.2     1  UNL1        0.2506
      2 O          65.8713   90.8239   13.8498 O.2     1  UNL1       -0.2699
      3 N          63.8836   90.5283   12.2031 N.am    1  UNL1       -0.2723
      4 C          63.0634   91.0329   11.0530 C.3     1  UNL1        0.1257
      5 C          61.8959   90.2327   10.5564 C.3     1  UNL1        0.1637
      6 O          61.5487   88.9279   11.2097 O.3     1  UNL1       -0.3502
      7 C          62.3689   88.4233   12.3598 C.3     1  UNL1        0.1622
      8 C          63.5364   89.2235   12.8565 C.3     1  UNL1        0.1096
      9 C          66.4401   96.5478   10.0864 C.3     1  UNL1        0.0311
     10 C          66.0928   95.2430   10.7397 C.ar    1  UNL1       -0.0203
     11 C          65.2107   94.2597   10.0291 C.ar    1  UNL1       -0.0040
     12 C          64.8634   92.9549   10.6825 C.ar    1  UNL1        0.0058
     13 C          65.3983   92.6333   12.0464 C.ar    1  UNL1        0.0729
     14 C          66.2805   93.6166   12.7570 C.ar    1  UNL1        0.1069
     15 C          66.6277   94.9214   12.1037 C.ar    1  UNL1        0.0168
     16 N          66.8155   93.2950   14.1211 N.ar    1  UNL1       -0.1477
     17 N          68.2502   93.0230   14.4638 N.ar    1  UNL1       -0.1447
     18 C          68.3312   92.7489   15.9363 C.ar    1  UNL1        0.1446
     19 C          66.9463   92.8515   16.5036 C.ar    1  UNL1        0.1446
     20 N          66.0096   93.1890   15.3817 N.ar    1  UNL1       -0.1447
     21 C          64.3566   88.7189   14.0065 C.3     1  UNL1        0.0488
     22 C          63.9450   87.4716   14.7310 C.ar    1  UNL1       -0.0167
     23 C          63.5036   87.5469   16.1626 C.ar    1  UNL1        0.0255
     24 C          63.0920   86.2996   16.8871 C.ar    1  UNL1        0.1414
     25 F          62.6506   86.3750   18.3188 F       1  UNL1       -0.2041
     26 C          63.1218   84.9771   16.1800 C.ar    1  UNL1        0.0505
     27 C          63.5631   84.9018   14.7485 C.ar    1  UNL1        0.1048
     28 C          63.9748   86.1491   14.0240 C.ar    1  UNL1        0.0168
     29 N          63.5929   83.5793   14.0413 N.ar    1  UNL1       -0.1477
     30 N          63.5760   83.3732   12.5557 N.ar    1  UNL1       -0.1447
     31 C          63.6175   81.8972   12.2919 C.ar    1  UNL1        0.1446
     32 C          63.6601   81.1909   13.6146 C.ar    1  UNL1        0.1446
     33 N          63.6449   82.2305   14.6958 N.ar    1  UNL1       -0.1447
@<TRIPOS>BOND
     1     9    10    1
     2    10    11   ar
     3    11    12   ar
     4    12    13   ar
     5    13     1    1
     6     1     2    2
     7     1     3   am
     8     3     4    1
     9     4     5    1
    10     5     6    1
    11     6     7    1
    12     7     8    1
    13     8    21    1
    14    21    22    1
    15    22    23   ar
    16    23    24   ar
    17    24    25    1
    18    24    26   ar
    19    26    27   ar
    20    27    29    1
    21    29    30   ar
    22    30    31   ar
    23    31    32   ar
    24    32    33   ar
    25    27    28   ar
    26    13    14   ar
    27    14    16    1
    28    16    17   ar
    29    17    18   ar
    30    18    19   ar
    31    19    20   ar
    32    14    15   ar
    33    15    10   ar
    34     8     3    1
    35    28    22   ar
    36    20    16   ar
    37    33    29   ar
@<TRIPOS>MOLECULE
*****
 33 37 0 0 0
SMALL
GASTEIGER

@<TRIPOS>ATOM
      1 C          64.0570   84.9926   14.1472 C.2     1  UNL1        0.2506
      2 O          65.1295   85.7260   13.3976 O.2     1  UNL1       -0.2699
      3 N          63.3898   85.6385   15.3252 N.am    1  UNL1       -0.2723
      4 C          62.3173   84.9051   16.0748 C.3     1  UNL1        0.1257
      5 C          61.6501   85.5509   17.2528 C.3     1  UNL1        0.1637
      6 O          62.0555   86.9301   17.6813 O.3     1  UNL1       -0.3502
      7 C          63.1279   87.6635   16.9317 C.3     1  UNL1        0.1622
      8 C          63.7952   87.0177   15.7536 C.3     1  UNL1        0.1096
      9 C          62.4357   79.4759   12.4334 C.3     1  UNL1        0.0311
     10 C          62.8410   80.8551   12.8619 C.ar    1  UNL1       -0.0203
     11 C          63.6378   81.0463   14.1182 C.ar    1  UNL1       -0.0040
     12 C          64.0431   82.4255   14.5467 C.ar    1  UNL1        0.0058
     13 C          63.6517   83.6135   13.7187 C.ar    1  UNL1        0.0729
     14 C          62.8549   83.4222   12.4623 C.ar    1  UNL1        0.1069
     15 C          62.4496   82.0430   12.0339 C.ar    1  UNL1        0.0168
     16 N          62.4635   84.6102   11.6343 N.ar    1  UNL1       -0.1477
     17 N          61.5966   85.7496   12.0817 N.ar    1  UNL1       -0.1447
     18 C          61.4675   86.7109   10.9375 C.ar    1  UNL1        0.1446
     19 C          62.2546   86.1656    9.7829 C.ar    1  UNL1        0.1446
     20 N          62.8702   84.8673   10.2136 N.ar    1  UNL1       -0.1447
     21 C          64.8677   87.7510   15.0041 C.3     1  UNL1        0.0488
     22 C          64.5247   88.9792   14.2142 C.ar    1  UNL1       -0.0167
     23 C          65.2716   90.2578   14.4537 C.ar    1  UNL1        0.0255
     24 C          64.9287   91.4860   13.6638 C.ar    1  UNL1        0.1414
     25 F          65.6756   92.7646   13.9034 F       1  UNL1       -0.2041
     26 C          63.8389   91.4356   12.6344 C.ar    1  UNL1        0.0505
     27 C          63.0920   90.1571   12.3949 C.ar    1  UNL1        0.1048
     28 C          63.4350   88.9289   13.1847 C.ar    1  UNL1        0.0168
     29 N          62.0022   90.1067   11.3654 N.ar    1  UNL1       -0.1477
     30 N          62.1947   89.9856    9.8827 N.ar    1  UNL1       -0.1447
     31 C          60.8400   89.9726    9.2389 C.ar    1  UNL1        0.1446
     32 C          59.8101   90.0856   10.3237 C.ar    1  UNL1        0.1446
     33 N          60.5284   90.1684   11.6379 N.ar    1  UNL1       -0.1447
@<TRIPOS>BOND
     1     9    10    1
     2    10    11   ar
     3    11    12   ar
     4    12    13   ar
     5    13     1    1
     6     1     2    2
     7     1     3   am
     8     3     4    1
     9     4     5    1
    10     5     6    1
    11     6     7    1
    12     7     8    1
    13     8    21    1
    14    21    22    1
    15    22    23   ar
    16    23    24   ar
    17    24    25    1
    18    24    26   ar
    19    26    27   ar
    20    27    29    1
    21    29    30   ar
    22    30    31   ar
    23    31    32   ar
    24    32    33   ar
    25    27    28   ar
    26    13    14   ar
    27    14    16    1
    28    16    17   ar
    29    17    18   ar
    30    18    19   ar
    31    19    20   ar
    32    14    15   ar
    33    15    10   ar
    34     8     3    1
    35    28    22   ar
    36    20    16   ar
    37    33    29   ar
@<TRIPOS>MOLECULE
*****
 33 37 0 0 0
SMALL
GASTEIGER

@<TRIPOS>ATOM
      1 C          63.4984   87.5528   13.1851 C.2     1  UNL1        0.2506
      2 O          63.5296   88.2216   11.8428 O.2     1  UNL1       -0.2699
      3 N          63.4093   88.3800   14.4332 N.am    1  UNL1       -0.2723
      4 C          63.3781   87.7112   15.7756 C.3     1  UNL1        0.1257
      5 C          63.2890   88.5383   17.0237 C.3     1  UNL1        0.1637
      6 O          63.2311   90.0342   16.9296 O.3     1  UNL1       -0.3502
      7 C          63.2623   90.7030   15.5873 C.3     1  UNL1        0.1622
      8 C          63.3514   89.8759   14.3391 C.3     1  UNL1        0.1096
      9 C          63.7300   81.5691   13.5616 C.3     1  UNL1        0.0311
     10 C          63.6721   83.0651   13.4674 C.ar    1  UNL1       -0.0203
     11 C          64.4058   83.9084   14.4676 C.ar    1  UNL1       -0.0040
     12 C          64.3479   85.4043   14.3735 C.ar    1  UNL1        0.0058
     13 C          63.5563   86.0569   13.2792 C.ar    1  UNL1        0.0729
     14 C          62.8226   85.2135   12.2791 C.ar    1  UNL1        0.1069
     15 C          62.8805   83.7176   12.3732 C.ar    1  UNL1        0.0168
     16 N          62.0309   85.8661   11.1847 N.ar    1  UNL1       -0.1477
     17 N          62.2935   85.7433    9.7130 N.ar    1  UNL1       -0.1447
     18 C          61.2626   86.5573    8.9887 C.ar    1  UNL1        0.1446
     19 C          60.3628   87.1832   10.0128 C.ar    1  UNL1        0.1446
     20 N          60.8377   86.7560   11.3700 N.ar    1  UNL1       -0.1447
     21 C          63.3826   90.5447   12.9969 C.3     1  UNL1        0.0488
     22 C          64.5221   91.4514   12.6370 C.ar    1  UNL1       -0.0167
     23 C          64.6232   92.0148   11.2505 C.ar    1  UNL1        0.0255
     24 C          65.7627   92.9214   10.8907 C.ar    1  UNL1        0.1414
     25 F          65.8638   93.4849    9.5041 F       1  UNL1       -0.2041
     26 C          66.8011   93.2647   11.9172 C.ar    1  UNL1        0.0505
     27 C          66.7000   92.7013   13.3037 C.ar    1  UNL1        0.1048
     28 C          65.5605   91.7946   13.6635 C.ar    1  UNL1        0.0168
     29 N          67.7384   93.0445   14.3303 N.ar    1  UNL1       -0.1477
     30 N          67.5401   93.9337   15.5219 N.ar    1  UNL1       -0.1447
     31 C          68.8365   93.9975   16.2736 C.ar    1  UNL1        0.1446
     32 C          69.8362   93.1477   15.5466 C.ar    1  UNL1        0.1446
     33 N          69.1575   92.5587   14.3456 N.ar    1  UNL1       -0.1447
@<TRIPOS>BOND
     1     9    10    1
     2    10    11   ar
     3    11    12   ar
     4    12    13   ar
     5    13     1    1
     6     1     2    2
     7     1     3   am
     8     3     4    1
     9     4     5    1
    10     5     6    1
    11     6     7    1
    12     7     8    1
    13     8    21    1
    14    21    22    1
    15    22    23   ar
    16    23    24   ar
    17    24    25    1
    18    24    26   ar
    19    26    27   ar
    20    27    29    1
    21    29    30   ar
    22    30    31   ar
    23    31    32   ar
    24    32    33   ar
    25    27    28   ar
    26    13    14   ar
    27    14    16    1
    28    16    17   ar
    29    17    18   ar
    30    18    19   ar
    31    19    20   ar
    32    14    15   ar
    33    15    10   ar
    34     8     3    1
    35    28    22   ar
    36    20    16   ar
    37    33    29   ar
@<TRIPOS>MOLECULE
*****
 33 37 0 0 0
SMALL
GASTEIGER

@<TRIPOS>ATOM
      1 C          63.8820   85.3569   14.1213 C.2     1  UNL1        0.2506
      2 O          64.7844   86.1081   13.1880 O.2     1  UNL1       -0.2699
      3 N          63.3549   86.0263   15.3558 N.am    1  UNL1       -0.2723
      4 C          62.4524   85.2750   16.2892 C.3     1  UNL1        0.1257
      5 C          61.9253   85.9445   17.5236 C.3     1  UNL1        0.1637
      6 O          62.3006   87.3652   17.8247 O.3     1  UNL1       -0.3502
      7 C          63.2030   88.1165   16.8914 C.3     1  UNL1        0.1622
      8 C          63.7302   87.4470   15.6569 C.3     1  UNL1        0.1096
      9 C          62.3809   79.6739   12.9168 C.3     1  UNL1        0.0311
     10 C          62.7562   81.0947   13.2180 C.ar    1  UNL1       -0.0203
     11 C          63.4701   81.4274   14.4945 C.ar    1  UNL1       -0.0040
     12 C          63.8454   82.8481   14.7956 C.ar    1  UNL1        0.0058
     13 C          63.5067   83.9361   13.8202 C.ar    1  UNL1        0.0729
     14 C          62.7928   83.6034   12.5437 C.ar    1  UNL1        0.1069
     15 C          62.4175   82.1827   12.2426 C.ar    1  UNL1        0.0168
     16 N          62.4541   84.6915   11.5682 N.ar    1  UNL1       -0.1477
     17 N          61.5481   85.8583   11.8285 N.ar    1  UNL1       -0.1447
     18 C          61.4960   86.6917   10.5824 C.ar    1  UNL1        0.1446
     19 C          62.3698   86.0399    9.5520 C.ar    1  UNL1        0.1446
     20 N          62.9619   84.8037   10.1612 N.ar    1  UNL1       -0.1447
     21 C          64.6326   88.1983   14.7235 C.3     1  UNL1        0.0488
     22 C          64.0543   89.1862   13.7542 C.ar    1  UNL1       -0.0167
     23 C          62.6889   88.9586   13.1763 C.ar    1  UNL1        0.0255
     24 C          62.1106   89.9464   12.2069 C.ar    1  UNL1        0.1414
     25 F          60.7452   89.7188   11.6290 F       1  UNL1       -0.2041
     26 C          62.8976   91.1619   11.8154 C.ar    1  UNL1        0.0505
     27 C          64.2629   91.3894   12.3933 C.ar    1  UNL1        0.1048
     28 C          64.8413   90.4016   13.3627 C.ar    1  UNL1        0.0168
     29 N          65.0500   92.6049   12.0018 N.ar    1  UNL1       -0.1477
     30 N          65.7766   93.5241   12.9383 N.ar    1  UNL1       -0.1447
     31 C          66.4243   94.6018   12.1204 C.ar    1  UNL1        0.1446
     32 C          66.0980   94.3487   10.6783 C.ar    1  UNL1        0.1446
     33 N          65.2486   93.1145   10.6051 N.ar    1  UNL1       -0.1447
@<TRIPOS>BOND
     1     9    10    1
     2    10    11   ar
     3    11    12   ar
     4    12    13   ar
     5    13     1    1
     6     1     2    2
     7     1     3   am
     8     3     4    1
     9     4     5    1
    10     5     6    1
    11     6     7    1
    12     7     8    1
    13     8    21    1
    14    21    22    1
    15    22    23   ar
    16    23    24   ar
    17    24    25    1
    18    24    26   ar
    19    26    27   ar
    20    27    29    1
    21    29    30   ar
    22    30    31   ar
    23    31    32   ar
    24    32    33   ar
    25    27    28   ar
    26    13    14   ar
    27    14    16    1
    28    16    17   ar
    29    17    18   ar
    30    18    19   ar
    31    19    20   ar
    32    14    15   ar
    33    15    10   ar
    34     8     3    1
    35    28    22   ar
    36    20    16   ar
    37    33    29   ar
@<TRIPOS>MOLECULE
*****
 33 37 0 0 0
SMALL
GASTEIGER

@<TRIPOS>ATOM
      1 C          62.3824   87.8943   11.1107 C.2     1  UNL1        0.2506
      2 O          63.4976   88.5364   10.3400 O.2     1  UNL1       -0.2699
      3 N          61.1395   88.6743   11.4217 N.am    1  UNL1       -0.2723
      4 C          60.0242   88.0322   12.1924 C.3     1  UNL1        0.1257
      5 C          58.7813   88.8122   12.5034 C.3     1  UNL1        0.1637
      6 O          58.6536   90.2343   12.0437 O.3     1  UNL1       -0.3502
      7 C          59.7688   90.8764   11.2730 C.3     1  UNL1        0.1622
      8 C          61.0118   90.0964   10.9620 C.3     1  UNL1        0.1096
      9 C          62.8932   82.2059   12.9495 C.3     1  UNL1        0.0311
     10 C          62.7655   83.6280   12.4898 C.ar    1  UNL1       -0.0203
     11 C          63.2648   84.7446   13.3580 C.ar    1  UNL1       -0.0040
     12 C          63.1371   86.1667   12.8983 C.ar    1  UNL1        0.0058
     13 C          62.5101   86.4722   11.5704 C.ar    1  UNL1        0.0729
     14 C          62.0108   85.3556   10.7022 C.ar    1  UNL1        0.1069
     15 C          62.1385   83.9335   11.1619 C.ar    1  UNL1        0.0168
     16 N          61.3837   85.6611    9.3742 N.ar    1  UNL1       -0.1477
     17 N          60.0915   86.3910    9.1563 N.ar    1  UNL1       -0.1447
     18 C          59.8479   86.4713    7.6784 C.ar    1  UNL1        0.1446
     19 C          60.9896   85.7910    6.9829 C.ar    1  UNL1        0.1446
     20 N          61.9388   85.2903    8.0309 N.ar    1  UNL1       -0.1447
     21 C          62.1270   90.7385   10.1913 C.3     1  UNL1        0.0488
     22 C          63.2844   91.3548   10.9197 C.ar    1  UNL1       -0.0167
     23 C          63.5407   91.0024   12.3550 C.ar    1  UNL1        0.0255
     24 C          64.6980   91.6187   13.0835 C.ar    1  UNL1        0.1414
     25 F          64.9543   91.2663   14.5188 F       1  UNL1       -0.2041
     26 C          65.5991   92.5875   12.3767 C.ar    1  UNL1        0.0505
     27 C          65.3428   92.9398   10.9414 C.ar    1  UNL1        0.1048
     28 C          64.1854   92.3235   10.2129 C.ar    1  UNL1        0.0168
     29 N          66.2438   93.9086   10.2345 N.ar    1  UNL1       -0.1477
     30 N          66.2275   95.4007   10.3876 N.ar    1  UNL1       -0.1447
     31 C          67.2930   95.9696    9.4981 C.ar    1  UNL1        0.1446
     32 C          67.9678   94.8290    8.7953 C.ar    1  UNL1        0.1446
     33 N          67.3194   93.5553    9.2504 N.ar    1  UNL1       -0.1447
@<TRIPOS>BOND
     1     9    10    1
     2    10    11   ar
     3    11    12   ar
     4    12    13   ar
     5    13     1    1
     6     1     2    2
     7     1     3   am
     8     3     4    1
     9     4     5    1
    10     5     6    1
    11     6     7    1
    12     7     8    1
    13     8    21    1
    14    21    22    1
    15    22    23   ar
    16    23    24   ar
    17    24    25    1
    18    24    26   ar
    19    26    27   ar
    20    27    29    1
    21    29    30   ar
    22    30    31   ar
    23    31    32   ar
    24    32    33   ar
    25    27    28   ar
    26    13    14   ar
    27    14    16    1
    28    16    17   ar
    29    17    18   ar
    30    18    19   ar
    31    19    20   ar
    32    14    15   ar
    33    15    10   ar
    34     8     3    1
    35    28    22   ar
    36    20    16   ar
    37    33    29   ar
