@<TRIPOS>MOLECULE
*****
 41 46 0 0 0
SMALL
GASTEIGER

@<TRIPOS>ATOM
      1 C          62.8492   85.8922   12.2038 C.ar    1  UNL1        0.0000
      2 C          63.3259   85.0760   13.3685 C.ar    1  UNL1        0.0000
      3 O          64.0701   85.9870   14.2992 O.2     1  UNL1        0.0000
      4 C          64.0534   87.3662   13.7097 C.ar    1  UNL1        0.0000
      5 C          64.6278   88.6678   14.1848 C.ar    1  UNL1        0.0000
      6 C          64.4475   89.9109   13.3649 C.ar    1  UNL1        0.0000
      7 C          63.6929   89.8523   12.0699 C.ar    1  UNL1        0.0000
      8 C          63.1186   88.5507   11.5947 C.ar    1  UNL1        0.0000
      9 C          63.2988   87.3076   12.4146 C.ar    1  UNL1        0.0000
     10 C          63.0983   83.6068   13.5676 C.ar    1  UNL1        0.0000
     11 C          61.8882   83.1297   14.3144 C.ar    1  UNL1        0.0000
     12 C          61.6606   81.6605   14.5135 C.ar    1  UNL1        0.0000
     13 C          62.6432   80.6683   13.9657 C.ar    1  UNL1        0.0000
     14 F          62.4156   79.1991   14.1647 F       1  UNL1        0.0000
     15 C          63.8533   81.1454   13.2188 C.ar    1  UNL1        0.0000
     16 C          64.0809   82.6146   13.0197 C.ar    1  UNL1        0.0000
     17 C          60.5428   85.8354    8.9746 C.3     1  UNL1        0.0000
     18 N          61.3308   86.3451   10.1447 N.am    1  UNL1        0.0000
     19 C          62.0612   85.3825   11.0336 C.2     1  UNL1        0.0000
     20 O          62.0035   83.9103   10.7522 O.2     1  UNL1        0.0000
     21 H          61.3686   87.3114   10.3294 H       1  UNL1        0.0000
     22 C          63.5127   91.0954   11.2500 C.3     1  UNL1        0.0000
     23 C          62.7734   92.3697   10.9679 C.3     1  UNL1        0.0000
     24 C          63.9400   91.9743   10.1120 C.3     1  UNL1        0.0000
     25 N          65.0219   91.2126   13.8401 N.pl3   1  UNL1        0.0000
     26 C          65.7689   92.0958   12.8851 C.ar    1  UNL1        0.0000
     27 C          65.4813   93.5674   12.8431 C.ar    1  UNL1        0.0000
     28 C          66.2283   94.4506   11.8882 C.ar    1  UNL1        0.0000
     29 CL         65.9408   95.9222   11.8462 Cl      1  UNL1        0.0000
     30 C          67.2628   93.8622   10.9751 C.ar    1  UNL1        0.0000
     31 C          67.5503   92.3907   11.0171 C.ar    1  UNL1        0.0000
     32 C          66.8034   91.5075   11.9721 C.ar    1  UNL1        0.0000
     33 C          68.6174   92.0978   10.0043 C.3     1  UNL1        0.0000
     34 O          68.9893   93.3884    9.3365 O.3     1  UNL1        0.0000
     35 B          68.1521   94.4789    9.9365 B       1  UNL1        0.0000
     36 O          68.1965   95.9311    9.5633 O.3     1  UNL1        0.0000
     37 H          68.8566   96.0655    8.8654 H       1  UNL1        0.0000
     38 S          64.8493   91.6311   15.2701 S.O2    1  UNL1        0.0000
     39 C          64.6768   92.0495   16.7002 C.3     1  UNL1        0.0000
     40 O          63.3611   91.5121   15.1253 O.2     1  UNL1        0.0000
     41 O          66.3376   91.7500   15.4149 O.2     1  UNL1        0.0000
@<TRIPOS>BOND
     1    17    18    1
     2    18    19   am
     3    19    20    2
     4    19     1    1
     5     1     2   ar
     6     2    10    1
     7    10    11   ar
     8    11    12   ar
     9    12    13   ar
    10    13    14    1
    11    13    15   ar
    12    15    16   ar
    13     2     3   ar
    14     3     4   ar
    15     4     5   ar
    16     5     6   ar
    17     6    25    1
    18    25    26    1
    19    26    27   ar
    20    27    28   ar
    21    28    29    1
    22    28    30   ar
    23    30    31   ar
    24    31    32   ar
    25    31    33    1
    26    33    34    1
    27    34    35    1
    28    35    36    1
    29    25    38    1
    30    38    39    1
    31    38    40    2
    32    38    41    2
    33     6     7   ar
    34     7    22    1
    35    22    23    1
    36    23    24    1
    37     7     8   ar
    38     8     9   ar
    39     9     1   ar
    40    16    10   ar
    41     9     4   ar
    42    32    26   ar
    43    24    22    1
    44    35    30    1
    45    18    21    1
    46    36    37    1
@<TRIPOS>MOLECULE
*****
 41 46 0 0 0
SMALL
GASTEIGER

@<TRIPOS>ATOM
      1 C          63.0630   85.8241   12.3801 C.ar    1  UNL1        0.0000
      2 C          63.2332   84.8568   13.5139 C.ar    1  UNL1        0.0000
      3 O          63.7041   85.6260   14.7125 O.2     1  UNL1        0.0000
      4 C          63.8249   87.0685   14.3195 C.ar    1  UNL1        0.0000
      5 C          64.2445   88.2864   15.0880 C.ar    1  UNL1        0.0000
      6 C          64.2679   89.6267   14.4150 C.ar    1  UNL1        0.0000
      7 C          63.8716   89.7491   12.9735 C.ar    1  UNL1        0.0000
      8 C          63.4520   88.5313   12.2050 C.ar    1  UNL1        0.0000
      9 C          63.4287   87.1910   12.8780 C.ar    1  UNL1        0.0000
     10 C          62.9775   83.3798   13.4588 C.ar    1  UNL1        0.0000
     11 C          61.9240   82.7679   14.3338 C.ar    1  UNL1        0.0000
     12 C          61.6683   81.2909   14.2787 C.ar    1  UNL1        0.0000
     13 C          62.4660   80.4258   13.3485 C.ar    1  UNL1        0.0000
     14 F          62.2102   78.9488   13.2934 F       1  UNL1        0.0000
     15 C          63.5194   81.0377   12.4735 C.ar    1  UNL1        0.0000
     16 C          63.7752   82.5147   12.5286 C.ar    1  UNL1        0.0000
     17 C          60.9678   85.8487    9.0096 C.3     1  UNL1        0.0000
     18 N          61.4237   86.1887   10.3977 N.am    1  UNL1        0.0000
     19 C          62.6071   85.4841   10.9921 C.2     1  UNL1        0.0000
     20 O          63.3345   84.4396   10.1985 O.2     1  UNL1        0.0000
     21 H          60.9463   86.8742   10.9185 H       1  UNL1        0.0000
     22 C          63.8950   91.0895   12.3004 C.3     1  UNL1        0.0000
     23 C          64.5397   92.4280   12.0932 C.3     1  UNL1        0.0000
     24 C          63.2909   92.0726   11.3421 C.3     1  UNL1        0.0000
     25 N          64.6875   90.8447   15.1835 N.pl3   1  UNL1        0.0000
     26 C          66.0519   91.4312   14.9728 C.ar    1  UNL1        0.0000
     27 C          66.8514   91.0541   13.7609 C.ar    1  UNL1        0.0000
     28 C          68.2158   91.6406   13.5503 C.ar    1  UNL1        0.0000
     29 CL         69.0153   91.2636   12.3384 Cl      1  UNL1        0.0000
     30 C          68.7807   92.6043   14.5515 C.ar    1  UNL1        0.0000
     31 C          67.9812   92.9813   15.7633 C.ar    1  UNL1        0.0000
     32 C          66.6168   92.3948   15.9740 C.ar    1  UNL1        0.0000
     33 C          68.7935   93.9490   16.5719 C.3     1  UNL1        0.0000
     34 O          70.0951   94.1699   15.8598 O.3     1  UNL1        0.0000
     35 B          70.0871   93.3388   14.6111 B       1  UNL1        0.0000
     36 O          71.1917   93.2568   13.5996 O.3     1  UNL1        0.0000
     37 H          71.9251   93.8291   13.8745 H       1  UNL1        0.0000
     38 S          63.7427   91.4761   16.1626 S.O2    1  UNL1        0.0000
     39 C          62.7979   92.1075   17.1418 C.3     1  UNL1        0.0000
     40 O          64.6022   92.7048   16.1996 O.2     1  UNL1        0.0000
     41 O          62.8832   90.2474   16.1256 O.2     1  UNL1        0.0000
@<TRIPOS>BOND
     1    17    18    1
     2    18    19   am
     3    19    20    2
     4    19     1    1
     5     1     2   ar
     6     2    10    1
     7    10    11   ar
     8    11    12   ar
     9    12    13   ar
    10    13    14    1
    11    13    15   ar
    12    15    16   ar
    13     2     3   ar
    14     3     4   ar
    15     4     5   ar
    16     5     6   ar
    17     6    25    1
    18    25    26    1
    19    26    27   ar
    20    27    28   ar
    21    28    29    1
    22    28    30   ar
    23    30    31   ar
    24    31    32   ar
    25    31    33    1
    26    33    34    1
    27    34    35    1
    28    35    36    1
    29    25    38    1
    30    38    39    1
    31    38    40    2
    32    38    41    2
    33     6     7   ar
    34     7    22    1
    35    22    23    1
    36    23    24    1
    37     7     8   ar
    38     8     9   ar
    39     9     1   ar
    40    16    10   ar
    41     9     4   ar
    42    32    26   ar
    43    24    22    1
    44    35    30    1
    45    18    21    1
    46    36    37    1
