@<TRIPOS>MOLECULE
*****
 22 24 0 0 0
SMALL
GASTEIGER

@<TRIPOS>ATOM
      1 C          66.0334   93.7035   12.4771 C.2     1  UNL1        0.2398
      2 O          66.4620   93.7202   13.9145 O.2     1  UNL1       -0.2734
      3 N          65.0978   92.6390   11.9857 N.am    1  UNL1       -0.2750
      4 C          64.6692   92.6223   10.5484 C.3     1  UNL1        0.1149
      5 C          63.7336   91.5578   10.0570 C.3     1  UNL1        0.1121
      6 N          63.2266   90.5100   11.0030 N.pl3   1  UNL1       -0.3071
      7 C          63.6552   90.5266   12.4403 C.3     1  UNL1        0.1121
      8 C          64.5908   91.5912   12.9318 C.3     1  UNL1        0.1149
      9 C          62.2910   89.4454   10.5116 C.2     1  UNL1        0.0295
     10 C          62.2881   88.0923   11.1588 C.2     1  UNL1        0.0120
     11 C          61.3525   87.0278   10.6674 C.2     1  UNL1        0.0216
     12 C          60.4197   87.3165    9.5287 C.2     1  UNL1        0.1008
     13 N          59.3929   86.4724    8.8337 N.2     1  UNL1       -0.1482
     14 N          58.7612   87.3039    7.7569 N.2     1  UNL1       -0.1467
     15 C          59.3975   88.6619    7.7864 C.2     1  UNL1        0.1198
     16 C          60.4226   88.6697    8.8815 C.2     1  UNL1        0.0238
     17 C          61.3582   89.7342    9.3730 C.3     1  UNL1        0.0705
     18 C          66.0760   96.1713   11.6658 C.3     1  UNL1        0.0267
     19 C          66.5404   94.7514   11.5311 C.3     1  UNL1        0.1286
     20 N          67.5118   94.3793   10.4504 N.3     1  UNL1       -0.3150
     21 H          67.7162   93.3815   10.5057 H       1  UNL1        0.1192
     22 H          68.3743   94.9103   10.5709 H       1  UNL1        0.1192
@<TRIPOS>BOND
     1    19    18    1
     2    19    20    1
     3    19     1    1
     4     1     2    2
     5     1     3   am
     6     3     4    1
     7     4     5    1
     8     5     6    1
     9     6     9    1
    10     9    10    2
    11    10    11    1
    12    11    12    2
    13    12    13    1
    14    13    14    2
    15    14    15    1
    16    15    16    2
    17    16    17    1
    18     6     7    1
    19     7     8    1
    20     8     3    1
    21    17     9    1
    22    16    12    1
    23    20    21    1
    24    20    22    1
@<TRIPOS>MOLECULE
*****
 22 24 0 0 0
SMALL
GASTEIGER

@<TRIPOS>ATOM
      1 C          59.8943   88.3347    8.0722 C.2     1  UNL1        0.2398
      2 O          59.2066   89.3336    7.1894 O.2     1  UNL1       -0.2734
      3 N          60.8289   88.8027    9.1481 N.am    1  UNL1       -0.2750
      4 C          61.5165   87.8037   10.0309 C.3     1  UNL1        0.1149
      5 C          62.4511   88.2717   11.1068 C.3     1  UNL1        0.1121
      6 N          62.6981   89.7385   11.2999 N.pl3   1  UNL1       -0.3071
      7 C          62.0105   90.7374   10.4172 C.3     1  UNL1        0.1121
      8 C          61.0758   90.2695    9.3412 C.3     1  UNL1        0.1149
      9 C          63.6327   90.2064   12.3759 C.2     1  UNL1        0.0295
     10 C          63.8018   89.3964   13.6269 C.2     1  UNL1        0.0120
     11 C          64.7365   89.8643   14.7028 C.2     1  UNL1        0.0216
     12 C          65.5020   91.1423   14.5276 C.2     1  UNL1        0.1008
     13 N          66.4877   91.8506   15.4088 N.2     1  UNL1       -0.1482
     14 N          66.9279   93.0985   14.7023 N.2     1  UNL1       -0.1467
     15 C          66.2141   93.1614   13.3845 C.2     1  UNL1        0.1198
     16 C          65.3328   91.9524   13.2765 C.2     1  UNL1        0.0238
     17 C          64.3982   91.4844   12.2006 C.3     1  UNL1        0.0705
     18 C          60.8047   85.9174    7.7938 C.3     1  UNL1        0.0267
     19 C          59.6473   86.8679    7.8791 C.3     1  UNL1        0.1286
     20 N          58.2432   86.3515    7.7714 N.3     1  UNL1       -0.3150
     21 H          57.5880   87.1292    7.8501 H       1  UNL1        0.1192
     22 H          58.0685   85.6825    8.5213 H       1  UNL1        0.1192
@<TRIPOS>BOND
     1    19    18    1
     2    19    20    1
     3    19     1    1
     4     1     2    2
     5     1     3   am
     6     3     4    1
     7     4     5    1
     8     5     6    1
     9     6     9    1
    10     9    10    2
    11    10    11    1
    12    11    12    2
    13    12    13    1
    14    13    14    2
    15    14    15    1
    16    15    16    2
    17    16    17    1
    18     6     7    1
    19     7     8    1
    20     8     3    1
    21    17     9    1
    22    16    12    1
    23    20    21    1
    24    20    22    1
@<TRIPOS>MOLECULE
*****
 22 24 0 0 0
SMALL
GASTEIGER

@<TRIPOS>ATOM
      1 C          63.8128   81.9104   13.2167 C.2     1  UNL1        0.2398
      2 O          63.9100   80.7647   14.1800 O.2     1  UNL1       -0.2734
      3 N          63.8103   83.3210   13.7268 N.am    1  UNL1       -0.2750
      4 C          63.7130   84.4667   12.7635 C.3     1  UNL1        0.1149
      5 C          63.7105   85.8773   13.2736 C.3     1  UNL1        0.1121
      6 N          63.8053   86.1422   14.7470 N.pl3   1  UNL1       -0.3071
      7 C          63.9025   84.9966   15.7102 C.3     1  UNL1        0.1121
      8 C          63.9050   83.5859   15.2002 C.3     1  UNL1        0.1149
      9 C          63.8028   87.5529   15.2570 C.2     1  UNL1        0.0295
     10 C          63.0720   87.8916   16.5223 C.2     1  UNL1        0.0120
     11 C          63.0695   89.3023   17.0324 C.2     1  UNL1        0.0216
     12 C          63.7979   90.3742   16.2770 C.2     1  UNL1        0.1008
     13 N          63.9706   91.8420   16.5333 N.2     1  UNL1       -0.1482
     14 N          64.8081   92.4103   15.4263 N.2     1  UNL1       -0.1467
     15 C          65.1530   91.2938   14.4858 C.2     1  UNL1        0.1198
     16 C          64.5286   90.0354   15.0116 C.2     1  UNL1        0.0238
     17 C          64.5311   88.6247   14.5016 C.3     1  UNL1        0.0705
     18 C          62.7430   80.6302   11.2251 C.3     1  UNL1        0.0267
     19 C          63.7180   81.6456   11.7433 C.3     1  UNL1        0.1286
     20 N          64.5981   82.3959   10.7883 N.3     1  UNL1       -0.3150
     21 H          65.1936   83.0399   11.3090 H       1  UNL1        0.1192
     22 H          64.0190   82.9220   10.1339 H       1  UNL1        0.1192
@<TRIPOS>BOND
     1    19    18    1
     2    19    20    1
     3    19     1    1
     4     1     2    2
     5     1     3   am
     6     3     4    1
     7     4     5    1
     8     5     6    1
     9     6     9    1
    10     9    10    2
    11    10    11    1
    12    11    12    2
    13    12    13    1
    14    13    14    2
    15    14    15    1
    16    15    16    2
    17    16    17    1
    18     6     7    1
    19     7     8    1
    20     8     3    1
    21    17     9    1
    22    16    12    1
    23    20    21    1
    24    20    22    1
@<TRIPOS>MOLECULE
*****
 22 24 0 0 0
SMALL
GASTEIGER

@<TRIPOS>ATOM
      1 C          62.8501   86.0122   16.6231 C.2     1  UNL1        0.2398
      2 O          62.0992   86.0597   17.9208 O.2     1  UNL1       -0.2734
      3 N          63.3956   87.2753   16.0257 N.am    1  UNL1       -0.2750
      4 C          64.1465   87.2279   14.7280 C.3     1  UNL1        0.1149
      5 C          64.6920   88.4910   14.1305 C.3     1  UNL1        0.1121
      6 N          64.4866   89.8015   14.8307 N.pl3   1  UNL1       -0.3071
      7 C          63.7357   89.8490   16.1283 C.3     1  UNL1        0.1121
      8 C          63.1901   88.5859   16.7258 C.3     1  UNL1        0.1149
      9 C          65.0321   91.0647   14.2332 C.2     1  UNL1        0.0295
     10 C          65.8369   92.0074   15.0778 C.2     1  UNL1        0.0120
     11 C          66.3824   93.2705   14.4803 C.2     1  UNL1        0.0216
     12 C          66.1231   93.5908   13.0380 C.2     1  UNL1        0.1008
     13 N          66.5289   94.7515   12.1790 N.2     1  UNL1       -0.1482
     14 N          65.9749   94.5262   10.8034 N.2     1  UNL1       -0.1467
     15 C          65.2267   93.2261   10.8122 C.2     1  UNL1        0.1198
     16 C          65.3183   92.6480   12.1933 C.2     1  UNL1        0.0238
     17 C          64.7728   91.3850   12.7909 C.3     1  UNL1        0.0705
     18 C          61.9294   84.0784   15.1526 C.3     1  UNL1        0.0267
     19 C          63.0555   84.7017   15.9230 C.3     1  UNL1        0.1286
     20 N          64.3869   84.0145   15.9932 N.3     1  UNL1       -0.3150
     21 H          65.0295   84.5745   16.5534 H       1  UNL1        0.1192
     22 H          64.7633   83.9054   15.0514 H       1  UNL1        0.1192
@<TRIPOS>BOND
     1    19    18    1
     2    19    20    1
     3    19     1    1
     4     1     2    2
     5     1     3   am
     6     3     4    1
     7     4     5    1
     8     5     6    1
     9     6     9    1
    10     9    10    2
    11    10    11    1
    12    11    12    2
    13    12    13    1
    14    13    14    2
    15    14    15    1
    16    15    16    2
    17    16    17    1
    18     6     7    1
    19     7     8    1
    20     8     3    1
    21    17     9    1
    22    16    12    1
    23    20    21    1
    24    20    22    1
@<TRIPOS>MOLECULE
*****
 22 24 0 0 0
SMALL
GASTEIGER

@<TRIPOS>ATOM
      1 C          62.6395   81.4443   12.3406 C.2     1  UNL1        0.2398
      2 O          62.7172   80.7267   11.0257 O.2     1  UNL1       -0.2734
      3 N          62.7896   82.9359   12.3911 N.am    1  UNL1       -0.2750
      4 C          62.7118   83.6535   13.7060 C.3     1  UNL1        0.1149
      5 C          62.8619   85.1451   13.7564 C.3     1  UNL1        0.1121
      6 N          63.0897   85.9191   12.4919 N.pl3   1  UNL1       -0.3071
      7 C          63.1675   85.2016   11.1771 C.3     1  UNL1        0.1121
      8 C          63.0174   83.7099   11.1266 C.3     1  UNL1        0.1149
      9 C          63.2398   87.4108   12.5425 C.2     1  UNL1        0.0295
     10 C          62.6454   88.2615   11.4595 C.2     1  UNL1        0.0120
     11 C          62.7955   89.7532   11.5100 C.2     1  UNL1        0.0216
     12 C          63.5400   90.3940   12.6436 C.2     1  UNL1        0.1008
     13 N          63.8476   91.8278   12.9591 N.2     1  UNL1       -0.1482
     14 N          64.6321   91.8632   14.2371 N.2     1  UNL1       -0.1467
     15 C          64.8094   90.4513   14.7114 C.2     1  UNL1        0.1198
     16 C          64.1345   89.5432   13.7266 C.2     1  UNL1        0.0238
     17 C          63.9844   88.0516   13.6760 C.3     1  UNL1        0.0705
     18 C          61.0193   80.4893   14.1331 C.3     1  UNL1        0.0267
     19 C          62.4117   80.6702   13.6051 C.3     1  UNL1        0.1286
     20 N          63.5760   80.0772   14.3415 N.3     1  UNL1       -0.3150
     21 H          64.4396   80.2962   13.8449 H       1  UNL1        0.1192
     22 H          63.4632   79.0650   14.3972 H       1  UNL1        0.1192
@<TRIPOS>BOND
     1    19    18    1
     2    19    20    1
     3    19     1    1
     4     1     2    2
     5     1     3   am
     6     3     4    1
     7     4     5    1
     8     5     6    1
     9     6     9    1
    10     9    10    2
    11    10    11    1
    12    11    12    2
    13    12    13    1
    14    13    14    2
    15    14    15    1
    16    15    16    2
    17    16    17    1
    18     6     7    1
    19     7     8    1
    20     8     3    1
    21    17     9    1
    22    16    12    1
    23    20    21    1
    24    20    22    1
@<TRIPOS>MOLECULE
*****
 22 24 0 0 0
SMALL
GASTEIGER

@<TRIPOS>ATOM
      1 C          61.0243   88.8703    9.6413 C.2     1  UNL1        0.2398
      2 O          60.4941   89.4198    8.3502 O.2     1  UNL1       -0.2734
      3 N          62.0639   89.6312   10.4097 N.am    1  UNL1       -0.2750
      4 C          62.5941   89.0816   11.7008 C.3     1  UNL1        0.1149
      5 C          63.6337   89.8425   12.4691 C.3     1  UNL1        0.1121
      6 N          64.1431   91.1529   11.9463 N.pl3   1  UNL1       -0.3071
      7 C          63.6130   91.7024   10.6552 C.3     1  UNL1        0.1121
      8 C          62.5733   90.9415    9.8868 C.3     1  UNL1        0.1149
      9 C          65.1827   91.9138   12.7147 C.2     1  UNL1        0.0295
     10 C          65.5458   93.3102   12.3048 C.2     1  UNL1        0.0120
     11 C          66.5854   94.0710   13.0732 C.2     1  UNL1        0.0216
     12 C          67.2619   93.4353   14.2514 C.2     1  UNL1        0.1008
     13 N          68.3164   93.9356   15.1936 N.2     1  UNL1       -0.1482
     14 N          68.6050   92.8483   16.1858 N.2     1  UNL1       -0.1467
     15 C          67.7288   91.6760   15.8568 C.2     1  UNL1        0.1198
     16 C          66.8988   92.0389   14.6613 C.2     1  UNL1        0.0238
     17 C          65.8592   91.2781   13.8929 C.3     1  UNL1        0.0705
     18 C          60.5942   86.3296    9.3096 C.3     1  UNL1        0.0267
     19 C          60.5149   87.5599   10.1642 C.3     1  UNL1        0.1286
     20 N          59.9262   87.4797   11.5414 N.3     1  UNL1       -0.3150
     21 H          59.9520   88.4020   11.9764 H       1  UNL1        0.1192
     22 H          60.4667   86.8230   12.1045 H       1  UNL1        0.1192
@<TRIPOS>BOND
     1    19    18    1
     2    19    20    1
     3    19     1    1
     4     1     2    2
     5     1     3   am
     6     3     4    1
     7     4     5    1
     8     5     6    1
     9     6     9    1
    10     9    10    2
    11    10    11    1
    12    11    12    2
    13    12    13    1
    14    13    14    2
    15    14    15    1
    16    15    16    2
    17    16    17    1
    18     6     7    1
    19     7     8    1
    20     8     3    1
    21    17     9    1
    22    16    12    1
    23    20    21    1
    24    20    22    1
@<TRIPOS>MOLECULE
*****
 22 24 0 0 0
SMALL
GASTEIGER

@<TRIPOS>ATOM
      1 C          60.1113   89.0880    8.7504 C.2     1  UNL1        0.2398
      2 O          60.2042   90.5346    9.1362 O.2     1  UNL1       -0.2734
      3 N          60.7519   88.0396    9.6110 N.am    1  UNL1       -0.2750
      4 C          60.6590   86.5931    9.2253 C.3     1  UNL1        0.1149
      5 C          61.2996   85.5447   10.0858 C.3     1  UNL1        0.1121
      6 N          62.0331   85.9430   11.3322 N.pl3   1  UNL1       -0.3071
      7 C          62.1260   87.3895   11.7180 C.3     1  UNL1        0.1121
      8 C          61.4854   88.4379   10.8574 C.3     1  UNL1        0.1149
      9 C          62.6737   84.8946   12.1928 C.2     1  UNL1        0.0295
     10 C          63.6367   85.2948   13.2708 C.2     1  UNL1        0.0120
     11 C          64.2773   84.2464   14.1314 C.2     1  UNL1        0.0216
     12 C          63.9548   82.7977   13.9138 C.2     1  UNL1        0.1008
     13 N          64.4270   81.5503   14.6000 N.2     1  UNL1       -0.1482
     14 N          63.7558   80.3791   13.9460 N.2     1  UNL1       -0.1467
     15 C          62.8688   80.9027   12.8556 C.2     1  UNL1        0.1198
     16 C          62.9917   82.3975   12.8357 C.2     1  UNL1        0.0238
     17 C          62.3512   83.4459   11.9752 C.3     1  UNL1        0.0705
     18 C          59.4368   89.5649    6.2872 C.3     1  UNL1        0.0267
     19 C          59.3778   88.6897    7.5041 C.3     1  UNL1        0.1286
     20 N          58.5855   87.4165    7.4746 N.3     1  UNL1       -0.3150
     21 H          58.6556   86.9514    8.3797 H       1  UNL1        0.1192
     22 H          58.9543   86.8033    6.7477 H       1  UNL1        0.1192
@<TRIPOS>BOND
     1    19    18    1
     2    19    20    1
     3    19     1    1
     4     1     2    2
     5     1     3   am
     6     3     4    1
     7     4     5    1
     8     5     6    1
     9     6     9    1
    10     9    10    2
    11    10    11    1
    12    11    12    2
    13    12    13    1
    14    13    14    2
    15    14    15    1
    16    15    16    2
    17    16    17    1
    18     6     7    1
    19     7     8    1
    20     8     3    1
    21    17     9    1
    22    16    12    1
    23    20    21    1
    24    20    22    1
@<TRIPOS>MOLECULE
*****
 22 24 0 0 0
SMALL
GASTEIGER

@<TRIPOS>ATOM
      1 C          63.4046   92.9785    1.7562 C.2     1  UNL1        0.2398
      2 O          63.2265   92.2815    3.0724 O.2     1  UNL1       -0.2734
      3 N          62.2843   92.9954    0.7588 N.am    1  UNL1       -0.2750
      4 C          62.4625   93.6923   -0.5575 C.3     1  UNL1        0.1149
      5 C          61.3422   93.7093   -1.5548 C.3     1  UNL1        0.1121
      6 N          60.0438   93.0292   -1.2359 N.pl3   1  UNL1       -0.3071
      7 C          59.8657   92.3323    0.0803 C.3     1  UNL1        0.1121
      8 C          60.9860   92.3154    1.0777 C.3     1  UNL1        0.1149
      9 C          58.9236   93.0462   -2.2333 C.2     1  UNL1        0.0295
     10 C          57.5480   92.6106   -1.8237 C.2     1  UNL1        0.0120
     11 C          56.4277   92.6275   -2.8212 C.2     1  UNL1        0.0216
     12 C          56.6832   93.0802   -4.2282 C.2     1  UNL1        0.1008
     13 N          55.7833   93.2034   -5.4219 N.2     1  UNL1       -0.1482
     14 N          56.6028   93.7152   -6.5693 N.2     1  UNL1       -0.1467
     15 C          58.0092   93.9083   -6.0847 C.2     1  UNL1        0.1198
     16 C          58.0589   93.5158   -4.6378 C.2     1  UNL1        0.0238
     17 C          59.1791   93.4989   -3.6404 C.3     1  UNL1        0.0705
     18 C          64.9352   95.0745    1.8746 C.3     1  UNL1        0.0267
     19 C          64.7030   93.6585    1.4373 C.3     1  UNL1        0.1286
     20 N          65.7691   92.9227    0.6811 N.3     1  UNL1       -0.3150
     21 H          65.4442   91.9801    0.4658 H       1  UNL1        0.1192
     22 H          66.6141   92.8694    1.2498 H       1  UNL1        0.1192
@<TRIPOS>BOND
     1    19    18    1
     2    19    20    1
     3    19     1    1
     4     1     2    2
     5     1     3   am
     6     3     4    1
     7     4     5    1
     8     5     6    1
     9     6     9    1
    10     9    10    2
    11    10    11    1
    12    11    12    2
    13    12    13    1
    14    13    14    2
    15    14    15    1
    16    15    16    2
    17    16    17    1
    18     6     7    1
    19     7     8    1
    20     8     3    1
    21    17     9    1
    22    16    12    1
    23    20    21    1
    24    20    22    1
@<TRIPOS>MOLECULE
*****
 22 24 0 0 0
SMALL
GASTEIGER

@<TRIPOS>ATOM
      1 C          62.7762   82.1999   12.8973 C.2     1  UNL1        0.2398
      2 O          62.8956   81.9143   11.4296 O.2     1  UNL1       -0.2734
      3 N          62.9941   83.5924   13.4105 N.am    1  UNL1       -0.2750
      4 C          62.8747   83.8781   14.8782 C.3     1  UNL1        0.1149
      5 C          63.0926   85.2706   15.3915 C.3     1  UNL1        0.1121
      6 N          63.4300   86.3774   14.4370 N.pl3   1  UNL1       -0.3071
      7 C          63.5495   86.0918   12.9694 C.3     1  UNL1        0.1121
      8 C          63.3315   84.6993   12.4561 C.3     1  UNL1        0.1149
      9 C          63.6479   87.7700   14.9503 C.2     1  UNL1        0.0295
     10 C          63.0916   88.1735   16.2836 C.2     1  UNL1        0.0120
     11 C          63.3096   89.5660   16.7969 C.2     1  UNL1        0.0216
     12 C          64.0839   90.5550   15.9768 C.2     1  UNL1        0.1008
     13 N          64.4567   91.9873   16.2204 N.2     1  UNL1       -0.1482
     14 N          65.2435   92.4690   15.0377 N.2     1  UNL1       -0.1467
     15 C          65.3569   91.3344   14.0631 C.2     1  UNL1        0.1198
     16 C          64.6402   90.1514   14.6435 C.2     1  UNL1        0.0238
     17 C          64.4222   88.7589   14.1303 C.3     1  UNL1        0.0705
     18 C          63.4519   80.0292   14.1547 C.3     1  UNL1        0.0267
     19 C          62.4388   81.0931   13.8517 C.3     1  UNL1        0.1286
     20 N          61.0884   81.0501   14.5032 N.3     1  UNL1       -0.3150
     21 H          60.5322   81.8439   14.1854 H       1  UNL1        0.1192
     22 H          61.1981   81.0956   15.5163 H       1  UNL1        0.1192
@<TRIPOS>BOND
     1    19    18    1
     2    19    20    1
     3    19     1    1
     4     1     2    2
     5     1     3   am
     6     3     4    1
     7     4     5    1
     8     5     6    1
     9     6     9    1
    10     9    10    2
    11    10    11    1
    12    11    12    2
    13    12    13    1
    14    13    14    2
    15    14    15    1
    16    15    16    2
    17    16    17    1
    18     6     7    1
    19     7     8    1
    20     8     3    1
    21    17     9    1
    22    16    12    1
    23    20    21    1
    24    20    22    1
