@<TRIPOS>MOLECULE
*****
 29 32 0 0 0
SMALL
GASTEIGER

@<TRIPOS>ATOM
      1 N          62.8949   88.4237   12.4290 N.3     1  UNL1       -0.2664
      2 C          63.6402   87.5020   13.3482 C.3     1  UNL1        0.0742
      3 C          63.7048   86.0338   13.0478 C.3     1  UNL1        0.0376
      4 C          63.0239   85.4873   11.8280 C.3     1  UNL1        0.0841
      5 C          62.2786   86.4089   10.9088 C.3     1  UNL1        0.0376
      6 C          62.2141   87.8771   11.2093 C.3     1  UNL1        0.0742
      7 N          63.0884   84.0191   11.5275 N.am    1  UNL1       -0.2423
      8 C          63.5334   83.4025   10.2346 C.2     1  UNL1        0.3309
      9 O          63.9921   84.1457    9.0151 O.2     1  UNL1       -0.2501
     10 N          63.4393   81.9121   10.3753 N.am    1  UNL1       -0.1647
     11 C          62.9361   81.6075   11.7551 C.2     1  UNL1        0.0706
     12 C          62.6473   80.3128   12.4552 C.3     1  UNL1        0.0705
     13 C          62.1416   80.3202   13.8673 C.2     1  UNL1       -0.0199
     14 C          61.9248   81.6224   14.5795 C.2     1  UNL1       -0.0029
     15 C          62.2136   82.9172   13.8794 C.2     1  UNL1        0.0156
     16 C          62.7192   82.9098   12.4673 C.2     1  UNL1        0.0668
     17 C          62.8304   89.8918   12.7294 C.3     1  UNL1        0.1350
     18 C          62.0405   90.8055   11.8398 C.3     1  UNL1        0.0272
     19 C          66.9477   92.7923   10.7587 C.3     1  UNL1        0.0189
     20 C          66.4625   92.4831   12.1440 C.3     1  UNL1        0.0741
     21 C          65.2518   91.6193   12.3392 C.3     1  UNL1        0.1091
     22 N          64.7665   91.3101   13.7244 N.am    1  UNL1       -0.2757
     23 C          63.5558   90.4463   13.9195 C.2     1  UNL1        0.2402
     24 O          63.0705   90.1371   15.3047 O.2     1  UNL1       -0.2734
     25 C          65.4920   91.8647   14.9144 C.3     1  UNL1        0.1091
     26 C          66.7027   92.7284   14.7192 C.3     1  UNL1        0.0741
     27 C          67.4281   93.2829   15.9093 C.3     1  UNL1        0.0189
     28 N          67.1879   93.0376   13.3340 N.3     1  UNL1       -0.2969
     29 H          68.1489   92.7004   13.2765 H       1  UNL1        0.1233
@<TRIPOS>BOND
     1    20    19    1
     2    20    21    1
     3    21    22    1
     4    22    23   am
     5    23    24    2
     6    23    17    1
     7    17    18    1
     8    17     1    1
     9     1     2    1
    10     2     3    1
    11     3     4    1
    12     4     7    1
    13     7     8   am
    14     8     9    2
    15     8    10    1
    16    10    11    2
    17    11    12    1
    18    12    13    1
    19    13    14    2
    20    14    15    1
    21    15    16    2
    22     4     5    1
    23     5     6    1
    24    22    25    1
    25    25    26    1
    26    26    27    1
    27    26    28    1
    28    28    20    1
    29     6     1    1
    30    16     7    1
    31    16    11    1
    32    28    29    1
@<TRIPOS>MOLECULE
*****
 29 32 0 0 0
SMALL
GASTEIGER

@<TRIPOS>ATOM
      1 N          63.4973   88.0608   13.3711 N.3     1  UNL1       -0.2664
      2 C          64.1260   86.9521   14.1620 C.3     1  UNL1        0.0742
      3 C          64.0603   85.5408   13.6583 C.3     1  UNL1        0.0376
      4 C          63.3658   85.2381   12.3635 C.3     1  UNL1        0.0841
      5 C          62.7371   86.3467   11.5727 C.3     1  UNL1        0.0376
      6 C          62.8028   87.7581   12.0764 C.3     1  UNL1        0.0742
      7 N          63.3001   83.8267   11.8598 N.am    1  UNL1       -0.2423
      8 C          63.7127   83.3571   10.4963 C.2     1  UNL1        0.3309
      9 O          64.2635   84.2163    9.3971 O.2     1  UNL1       -0.2501
     10 N          63.4778   81.8773   10.4250 N.am    1  UNL1       -0.1647
     11 C          62.9200   81.4324   11.7445 C.2     1  UNL1        0.0706
     12 C          62.4979   80.0858   12.2530 C.3     1  UNL1        0.0705
     13 C          61.9659   79.9441   13.6483 C.2     1  UNL1       -0.0199
     14 C          61.8561   81.1489   14.5351 C.2     1  UNL1       -0.0029
     15 C          62.2782   82.4955   14.0265 C.2     1  UNL1        0.0156
     16 C          62.8101   82.6372   12.6312 C.2     1  UNL1        0.0668
     17 C          63.5630   89.4722   13.8748 C.3     1  UNL1        0.1350
     18 C          63.4469   89.7503   15.3442 C.3     1  UNL1        0.0272
     19 C          68.0789   92.0295   15.3966 C.3     1  UNL1        0.0189
     20 C          67.0864   92.2401   14.2918 C.3     1  UNL1        0.0741
     21 C          65.9119   91.3175   14.1528 C.3     1  UNL1        0.1091
     22 N          64.9194   91.5281   13.0480 N.am    1  UNL1       -0.2757
     23 C          63.7449   90.6054   12.9090 C.2     1  UNL1        0.2402
     24 O          62.7524   90.8160   11.8043 O.2     1  UNL1       -0.2734
     25 C          65.1013   92.6613   12.0823 C.3     1  UNL1        0.1091
     26 C          66.2758   93.5840   12.2213 C.3     1  UNL1        0.0741
     27 C          66.4577   94.7172   11.2556 C.3     1  UNL1        0.0189
     28 N          67.2683   93.3734   13.3261 N.3     1  UNL1       -0.2969
     29 H          67.2813   94.2312   13.8778 H       1  UNL1        0.1233
@<TRIPOS>BOND
     1    20    19    1
     2    20    21    1
     3    21    22    1
     4    22    23   am
     5    23    24    2
     6    23    17    1
     7    17    18    1
     8    17     1    1
     9     1     2    1
    10     2     3    1
    11     3     4    1
    12     4     7    1
    13     7     8   am
    14     8     9    2
    15     8    10    1
    16    10    11    2
    17    11    12    1
    18    12    13    1
    19    13    14    2
    20    14    15    1
    21    15    16    2
    22     4     5    1
    23     5     6    1
    24    22    25    1
    25    25    26    1
    26    26    27    1
    27    26    28    1
    28    28    20    1
    29     6     1    1
    30    16     7    1
    31    16    11    1
    32    28    29    1
@<TRIPOS>MOLECULE
*****
 29 32 0 0 0
SMALL
GASTEIGER

@<TRIPOS>ATOM
      1 N          62.0667   88.3087   11.4674 N.3     1  UNL1       -0.2664
      2 C          63.0380   87.6696   12.4150 C.3     1  UNL1        0.0742
      3 C          63.3005   86.1947   12.3384 C.3     1  UNL1        0.0376
      4 C          62.5916   85.3589   11.3142 C.3     1  UNL1        0.0841
      5 C          61.6202   85.9980   10.3667 C.3     1  UNL1        0.0376
      6 C          61.3578   87.4729   10.4433 C.3     1  UNL1        0.0742
      7 N          62.8540   83.8840   11.2376 N.am    1  UNL1       -0.2423
      8 C          63.4464   83.1534   10.0691 C.2     1  UNL1        0.3309
      9 O          63.8802   83.7694    8.7721 O.2     1  UNL1       -0.2501
     10 N          63.5287   81.6987   10.4255 N.am    1  UNL1       -0.1647
     11 C          62.9872   81.5302   11.8142 C.2     1  UNL1        0.0706
     12 C          62.8199   80.3215   12.6864 C.3     1  UNL1        0.0705
     13 C          62.2357   80.4634   14.0607 C.2     1  UNL1       -0.0199
     14 C          61.8188   81.8140   14.5626 C.2     1  UNL1       -0.0029
     15 C          61.9860   83.0227   13.6903 C.2     1  UNL1        0.0156
     16 C          62.5702   82.8808   12.3161 C.2     1  UNL1        0.0668
     17 C          61.8042   89.7836   11.5440 C.3     1  UNL1        0.1350
     18 C          60.3971   90.2898   11.6614 C.3     1  UNL1        0.0272
     19 C          63.5736   90.2294   16.6351 C.3     1  UNL1        0.0189
     20 C          63.9898   90.8444   15.3318 C.3     1  UNL1        0.0741
     21 C          63.2613   90.4908   14.0692 C.3     1  UNL1        0.1091
     22 N          63.6774   91.1057   12.7659 N.am    1  UNL1       -0.2757
     23 C          62.9488   90.7521   11.5032 C.2     1  UNL1        0.2402
     24 O          63.3650   91.3670   10.1999 O.2     1  UNL1       -0.2734
     25 C          64.8221   92.0742   12.7252 C.3     1  UNL1        0.1091
     26 C          65.5506   92.4278   13.9878 C.3     1  UNL1        0.0741
     27 C          66.6953   93.3963   13.9471 C.3     1  UNL1        0.0189
     28 N          65.1345   91.8129   15.2912 N.3     1  UNL1       -0.2969
     29 H          64.8917   92.5821   15.9154 H       1  UNL1        0.1233
@<TRIPOS>BOND
     1    20    19    1
     2    20    21    1
     3    21    22    1
     4    22    23   am
     5    23    24    2
     6    23    17    1
     7    17    18    1
     8    17     1    1
     9     1     2    1
    10     2     3    1
    11     3     4    1
    12     4     7    1
    13     7     8   am
    14     8     9    2
    15     8    10    1
    16    10    11    2
    17    11    12    1
    18    12    13    1
    19    13    14    2
    20    14    15    1
    21    15    16    2
    22     4     5    1
    23     5     6    1
    24    22    25    1
    25    25    26    1
    26    26    27    1
    27    26    28    1
    28    28    20    1
    29     6     1    1
    30    16     7    1
    31    16    11    1
    32    28    29    1
@<TRIPOS>MOLECULE
*****
 29 32 0 0 0
SMALL
GASTEIGER

@<TRIPOS>ATOM
      1 N          62.5225   88.7704   12.1312 N.3     1  UNL1       -0.2664
      2 C          62.4455   90.2662   12.0496 C.3     1  UNL1        0.0742
      3 C          63.2830   91.1113   12.9630 C.3     1  UNL1        0.0376
      4 C          64.1976   90.4605   13.9582 C.3     1  UNL1        0.0841
      5 C          64.2745   88.9648   14.0398 C.3     1  UNL1        0.0376
      6 C          63.4369   88.1197   13.1264 C.3     1  UNL1        0.0742
      7 N          65.0351   91.3056   14.8717 N.am    1  UNL1       -0.2423
      8 C          64.5944   91.8939   16.1793 C.2     1  UNL1        0.3309
      9 O          63.2389   91.7404   16.8030 O.2     1  UNL1       -0.2501
     10 N          65.7473   92.6627   16.7536 N.am    1  UNL1       -0.1647
     11 C          66.9005   92.5495   15.8010 C.2     1  UNL1        0.0706
     12 C          68.2944   93.1017   15.8425 C.3     1  UNL1        0.0705
     13 C          69.2482   92.8153   14.7208 C.2     1  UNL1       -0.0199
     14 C          68.8080   91.9766   13.5577 C.2     1  UNL1       -0.0029
     15 C          67.4141   91.4244   13.5163 C.2     1  UNL1        0.0156
     16 C          66.4603   91.7108   14.6379 C.2     1  UNL1        0.0668
     17 C          61.6850   87.9253   11.2178 C.3     1  UNL1        0.1350
     18 C          60.2217   88.2150   11.0598 C.3     1  UNL1        0.0272
     19 C          62.2793   83.8993   14.7797 C.3     1  UNL1        0.0189
     20 C          62.6001   84.0547   13.3227 C.3     1  UNL1        0.0741
     21 C          62.2951   85.3449   12.6210 C.3     1  UNL1        0.1091
     22 N          62.6159   85.5004   11.1640 N.am    1  UNL1       -0.2757
     23 C          62.3108   86.7906   10.4624 C.2     1  UNL1        0.2402
     24 O          62.6316   86.9460    9.0053 O.2     1  UNL1       -0.2734
     25 C          63.2417   84.3656   10.4086 C.3     1  UNL1        0.1091
     26 C          63.5467   83.0754   11.1103 C.3     1  UNL1        0.0741
     27 C          64.1725   81.9406   10.3549 C.3     1  UNL1        0.0189
     28 N          63.2259   82.9200   12.5673 N.3     1  UNL1       -0.2969
     29 H          64.1025   82.6996   13.0400 H       1  UNL1        0.1233
@<TRIPOS>BOND
     1    20    19    1
     2    20    21    1
     3    21    22    1
     4    22    23   am
     5    23    24    2
     6    23    17    1
     7    17    18    1
     8    17     1    1
     9     1     2    1
    10     2     3    1
    11     3     4    1
    12     4     7    1
    13     7     8   am
    14     8     9    2
    15     8    10    1
    16    10    11    2
    17    11    12    1
    18    12    13    1
    19    13    14    2
    20    14    15    1
    21    15    16    2
    22     4     5    1
    23     5     6    1
    24    22    25    1
    25    25    26    1
    26    26    27    1
    27    26    28    1
    28    28    20    1
    29     6     1    1
    30    16     7    1
    31    16    11    1
    32    28    29    1
@<TRIPOS>MOLECULE
*****
 29 32 0 0 0
SMALL
GASTEIGER

@<TRIPOS>ATOM
      1 N          62.2672   89.1439   11.2381 N.3     1  UNL1       -0.2664
      2 C          62.6096   90.2368   10.2694 C.3     1  UNL1        0.0742
      3 C          63.5901   91.3034   10.6578 C.3     1  UNL1        0.0376
      4 C          64.2284   91.2771   12.0151 C.3     1  UNL1        0.0841
      5 C          63.8860   90.1843   12.9837 C.3     1  UNL1        0.0376
      6 C          62.9054   89.1177   12.5953 C.3     1  UNL1        0.0742
      7 N          65.2090   92.3437   12.4036 N.am    1  UNL1       -0.2423
      8 C          65.6690   93.4769   11.5352 C.2     1  UNL1        0.3309
      9 O          65.2293   93.7426   10.1259 O.2     1  UNL1       -0.2501
     10 N          66.6460   94.2978   12.3236 N.am    1  UNL1       -0.1647
     11 C          66.7898   93.6720   13.6792 C.2     1  UNL1        0.0706
     12 C          67.6146   94.0458   14.8749 C.3     1  UNL1        0.0705
     13 C          67.5513   93.2118   16.1201 C.2     1  UNL1       -0.0199
     14 C          66.6632   92.0041   16.1695 C.2     1  UNL1       -0.0029
     15 C          65.8383   91.6303   14.9738 C.2     1  UNL1        0.0156
     16 C          65.9016   92.4642   13.7286 C.2     1  UNL1        0.0668
     17 C          61.2866   88.0774   10.8496 C.3     1  UNL1        0.1350
     18 C          59.8312   88.2432   11.1723 C.3     1  UNL1        0.0272
     19 C          63.6689   85.0021   14.6069 C.3     1  UNL1        0.0189
     20 C          63.4296   84.8466   13.1343 C.3     1  UNL1        0.0741
     21 C          62.7153   85.9235   12.3727 C.3     1  UNL1        0.1091
     22 N          62.4760   85.7680   10.9001 N.am    1  UNL1       -0.2757
     23 C          61.7616   86.8450   10.1386 C.2     1  UNL1        0.2402
     24 O          61.5223   86.6895    8.6660 O.2     1  UNL1       -0.2734
     25 C          62.9510   84.5356   10.1891 C.3     1  UNL1        0.1091
     26 C          63.6653   83.4587   10.9507 C.3     1  UNL1        0.0741
     27 C          64.1403   82.2264   10.2396 C.3     1  UNL1        0.0189
     28 N          63.9046   83.6142   12.4233 N.3     1  UNL1       -0.2969
     29 H          64.9135   83.5631   12.5647 H       1  UNL1        0.1233
@<TRIPOS>BOND
     1    20    19    1
     2    20    21    1
     3    21    22    1
     4    22    23   am
     5    23    24    2
     6    23    17    1
     7    17    18    1
     8    17     1    1
     9     1     2    1
    10     2     3    1
    11     3     4    1
    12     4     7    1
    13     7     8   am
    14     8     9    2
    15     8    10    1
    16    10    11    2
    17    11    12    1
    18    12    13    1
    19    13    14    2
    20    14    15    1
    21    15    16    2
    22     4     5    1
    23     5     6    1
    24    22    25    1
    25    25    26    1
    26    26    27    1
    27    26    28    1
    28    28    20    1
    29     6     1    1
    30    16     7    1
    31    16    11    1
    32    28    29    1
@<TRIPOS>MOLECULE
*****
 29 32 0 0 0
SMALL
GASTEIGER

@<TRIPOS>ATOM
      1 N          61.6844   89.6680   11.1019 N.3     1  UNL1       -0.2664
      2 C          62.3740   90.5385   10.0936 C.3     1  UNL1        0.0742
      3 C          63.5386   91.3882   10.5081 C.3     1  UNL1        0.0376
      4 C          64.0136   91.3674   11.9308 C.3     1  UNL1        0.0841
      5 C          63.3239   90.4968   12.9389 C.3     1  UNL1        0.0376
      6 C          62.1593   89.6471   12.5245 C.3     1  UNL1        0.0742
      7 N          65.1781   92.2171   12.3452 N.am    1  UNL1       -0.2423
      8 C          65.9994   93.0885   11.4418 C.2     1  UNL1        0.3309
      9 O          65.8003   93.2633    9.9654 O.2     1  UNL1       -0.2501
     10 N          67.0547   93.7545   12.2741 N.am    1  UNL1       -0.1647
     11 C          66.8857   93.2947   13.6919 C.2     1  UNL1        0.0706
     12 C          67.6380   93.6185   14.9485 C.3     1  UNL1        0.0705
     13 C          67.2305   92.9921   16.2490 C.2     1  UNL1       -0.0199
     14 C          66.0707   92.0419   16.2930 C.2     1  UNL1       -0.0029
     15 C          65.3184   91.7181   15.0364 C.2     1  UNL1        0.0156
     16 C          65.7259   92.3445   13.7358 C.2     1  UNL1        0.0668
     17 C          60.5198   88.8182   10.6875 C.3     1  UNL1        0.1350
     18 C          59.3825   88.5892   11.6383 C.3     1  UNL1        0.0272
     19 C          63.5650   84.3601   11.0056 C.3     1  UNL1        0.0189
     20 C          62.7833   85.0091    9.9021 C.3     1  UNL1        0.0741
     21 C          62.0288   86.2789   10.1639 C.3     1  UNL1        0.1091
     22 N          61.2471   86.9279    9.0604 N.am    1  UNL1       -0.2757
     23 C          60.4926   88.1976    9.3222 C.2     1  UNL1        0.2402
     24 O          59.7109   88.8466    8.2187 O.2     1  UNL1       -0.2734
     25 C          61.2199   86.3071    7.6951 C.3     1  UNL1        0.1091
     26 C          61.9744   85.0374    7.4334 C.3     1  UNL1        0.0741
     27 C          61.9472   84.4168    6.0681 C.3     1  UNL1        0.0189
     28 N          62.7561   84.3884    8.5369 N.3     1  UNL1       -0.2969
     29 H          63.7238   84.3332    8.2192 H       1  UNL1        0.1233
@<TRIPOS>BOND
     1    20    19    1
     2    20    21    1
     3    21    22    1
     4    22    23   am
     5    23    24    2
     6    23    17    1
     7    17    18    1
     8    17     1    1
     9     1     2    1
    10     2     3    1
    11     3     4    1
    12     4     7    1
    13     7     8   am
    14     8     9    2
    15     8    10    1
    16    10    11    2
    17    11    12    1
    18    12    13    1
    19    13    14    2
    20    14    15    1
    21    15    16    2
    22     4     5    1
    23     5     6    1
    24    22    25    1
    25    25    26    1
    26    26    27    1
    27    26    28    1
    28    28    20    1
    29     6     1    1
    30    16     7    1
    31    16    11    1
    32    28    29    1
@<TRIPOS>MOLECULE
*****
 29 32 0 0 0
SMALL
GASTEIGER

@<TRIPOS>ATOM
      1 N          62.5294   88.6489   11.7509 N.3     1  UNL1       -0.2664
      2 C          63.5195   88.2578   12.8075 C.3     1  UNL1        0.0742
      3 C          63.5610   86.8452   13.3105 C.3     1  UNL1        0.0376
      4 C          62.6122   85.8237   12.7568 C.3     1  UNL1        0.0841
      5 C          61.6221   86.2149   11.7002 C.3     1  UNL1        0.0376
      6 C          61.5806   87.6274   11.1972 C.3     1  UNL1        0.0742
      7 N          62.6537   84.4112   13.2598 N.am    1  UNL1       -0.2423
      8 C          62.4910   83.9783   14.6867 C.2     1  UNL1        0.3309
      9 O          62.2584   84.8818   15.8612 O.2     1  UNL1       -0.2501
     10 N          62.6019   82.4831   14.7329 N.am    1  UNL1       -0.1647
     11 C          62.8331   81.9919   13.3346 C.2     1  UNL1        0.0706
     12 C          63.0186   80.6136   12.7727 C.3     1  UNL1        0.0705
     13 C          63.2361   80.4269   11.3004 C.2     1  UNL1       -0.0199
     14 C          63.2681   81.6186   10.3899 C.2     1  UNL1       -0.0029
     15 C          63.0826   82.9969   10.9518 C.2     1  UNL1        0.0156
     16 C          62.8651   83.1836   12.4241 C.2     1  UNL1        0.0668
     17 C          62.4879   90.0614   11.2479 C.3     1  UNL1        0.1350
     18 C          61.2563   90.5787   10.5655 C.3     1  UNL1        0.0272
     19 C          63.3403   90.3727   16.5795 C.3     1  UNL1        0.0189
     20 C          64.0198   90.9663   15.3812 C.3     1  UNL1        0.0741
     21 C          63.5092   90.6647   14.0034 C.3     1  UNL1        0.1091
     22 N          64.1887   91.2582   12.8051 N.am    1  UNL1       -0.2757
     23 C          63.6780   90.9566   11.4273 C.2     1  UNL1        0.2402
     24 O          64.3575   91.5502   10.2290 O.2     1  UNL1       -0.2734
     25 C          65.3788   92.1534   12.9846 C.3     1  UNL1        0.1091
     26 C          65.8894   92.4550   14.3624 C.3     1  UNL1        0.0741
     27 C          67.0796   93.3502   14.5418 C.3     1  UNL1        0.0189
     28 N          65.2099   91.8614   15.5607 N.3     1  UNL1       -0.2969
     29 H          64.9064   92.6415   16.1435 H       1  UNL1        0.1233
@<TRIPOS>BOND
     1    20    19    1
     2    20    21    1
     3    21    22    1
     4    22    23   am
     5    23    24    2
     6    23    17    1
     7    17    18    1
     8    17     1    1
     9     1     2    1
    10     2     3    1
    11     3     4    1
    12     4     7    1
    13     7     8   am
    14     8     9    2
    15     8    10    1
    16    10    11    2
    17    11    12    1
    18    12    13    1
    19    13    14    2
    20    14    15    1
    21    15    16    2
    22     4     5    1
    23     5     6    1
    24    22    25    1
    25    25    26    1
    26    26    27    1
    27    26    28    1
    28    28    20    1
    29     6     1    1
    30    16     7    1
    31    16    11    1
    32    28    29    1
@<TRIPOS>MOLECULE
*****
 29 32 0 0 0
SMALL
GASTEIGER

@<TRIPOS>ATOM
      1 N          63.7985   88.4575   13.8951 N.3     1  UNL1       -0.2664
      2 C          64.2384   87.5790   15.0286 C.3     1  UNL1        0.0742
      3 C          64.0184   86.0969   14.9578 C.3     1  UNL1        0.0376
      4 C          63.3584   85.4933   13.7536 C.3     1  UNL1        0.0841
      5 C          62.9185   86.3718   12.6202 C.3     1  UNL1        0.0376
      6 C          63.1386   87.8539   12.6909 C.3     1  UNL1        0.0742
      7 N          63.1384   84.0112   13.6828 N.am    1  UNL1       -0.2423
      8 C          62.7072   83.1288   14.8166 C.2     1  UNL1        0.3309
      9 O          62.4204   83.5735   16.2201 O.2     1  UNL1       -0.2501
     10 N          62.6132   81.7235   14.3003 N.am    1  UNL1       -0.1647
     11 C          62.9863   81.7375   12.8475 C.2     1  UNL1        0.0706
     12 C          63.0724   80.6454   11.8229 C.3     1  UNL1        0.0705
     13 C          63.4831   80.9673   10.4166 C.2     1  UNL1       -0.0199
     14 C          63.8076   82.3811   10.0349 C.2     1  UNL1       -0.0029
     15 C          63.7215   83.4732   11.0596 C.2     1  UNL1        0.0156
     16 C          63.3108   83.1514   12.4659 C.2     1  UNL1        0.0668
     17 C          64.0186   89.9396   13.9658 C.3     1  UNL1        0.1350
     18 C          64.1115   90.6212   15.2988 C.3     1  UNL1        0.0272
     19 C          67.6380   93.8205   15.0087 C.3     1  UNL1        0.0189
     20 C          66.8285   93.4506   13.8013 C.3     1  UNL1        0.0741
     21 C          65.8918   92.2802   13.8561 C.3     1  UNL1        0.1091
     22 N          65.0823   91.9103   12.6487 N.am    1  UNL1       -0.2757
     23 C          64.1456   90.7399   12.7036 C.2     1  UNL1        0.2402
     24 O          63.3361   90.3700   11.4962 O.2     1  UNL1       -0.2734
     25 C          65.2094   92.7107   11.3865 C.3     1  UNL1        0.1091
     26 C          66.1461   93.8810   11.3317 C.3     1  UNL1        0.0741
     27 C          66.2731   94.6814   10.0695 C.3     1  UNL1        0.0189
     28 N          66.9556   94.2510   12.5391 N.3     1  UNL1       -0.2969
     29 H          66.7107   95.2128   12.7744 H       1  UNL1        0.1233
@<TRIPOS>BOND
     1    20    19    1
     2    20    21    1
     3    21    22    1
     4    22    23   am
     5    23    24    2
     6    23    17    1
     7    17    18    1
     8    17     1    1
     9     1     2    1
    10     2     3    1
    11     3     4    1
    12     4     7    1
    13     7     8   am
    14     8     9    2
    15     8    10    1
    16    10    11    2
    17    11    12    1
    18    12    13    1
    19    13    14    2
    20    14    15    1
    21    15    16    2
    22     4     5    1
    23     5     6    1
    24    22    25    1
    25    25    26    1
    26    26    27    1
    27    26    28    1
    28    28    20    1
    29     6     1    1
    30    16     7    1
    31    16    11    1
    32    28    29    1
@<TRIPOS>MOLECULE
*****
 29 32 0 0 0
SMALL
GASTEIGER

@<TRIPOS>ATOM
      1 N          63.8040   87.9691   14.0840 N.3     1  UNL1       -0.2664
      2 C          64.3509   86.7445   14.7558 C.3     1  UNL1        0.0742
      3 C          64.2132   85.4035   14.0980 C.3     1  UNL1        0.0376
      4 C          63.5286   85.2870   12.7683 C.3     1  UNL1        0.0841
      5 C          62.9818   86.5116   12.0966 C.3     1  UNL1        0.0376
      6 C          63.1195   87.8526   12.7545 C.3     1  UNL1        0.0742
      7 N          63.3909   83.9460   12.1105 N.am    1  UNL1       -0.2423
      8 C          63.6953   83.6324   10.6756 C.2     1  UNL1        0.3309
      9 O          64.1908   84.6048    9.6465 O.2     1  UNL1       -0.2501
     10 N          63.4171   82.1758   10.4504 N.am    1  UNL1       -0.1647
     11 C          62.9409   81.5891   11.7462 C.2     1  UNL1        0.0706
     12 C          62.5198   80.1999   12.1244 C.3     1  UNL1        0.0705
     13 C          62.0826   79.9049   13.5285 C.2     1  UNL1       -0.0199
     14 C          62.0664   80.9990   14.5545 C.2     1  UNL1       -0.0029
     15 C          62.4874   82.3882   14.1764 C.2     1  UNL1        0.0156
     16 C          62.9246   82.6832   12.7722 C.2     1  UNL1        0.0668
     17 C          63.9417   89.3101   14.7418 C.3     1  UNL1        0.1350
     18 C          63.1895   89.6065   16.0053 C.3     1  UNL1        0.0272
     19 C          61.7411   90.5686    9.9645 C.3     1  UNL1        0.0189
     20 C          62.9587   91.0374   10.7045 C.3     1  UNL1        0.0741
     21 C          63.2864   90.4616   12.0503 C.3     1  UNL1        0.1091
     22 N          64.5040   90.9305   12.7903 N.am    1  UNL1       -0.2757
     23 C          64.8317   90.3546   14.1362 C.2     1  UNL1        0.2402
     24 O          66.0493   90.8234   14.8762 O.2     1  UNL1       -0.2734
     25 C          65.3939   91.9750   12.1846 C.3     1  UNL1        0.1091
     26 C          65.0662   92.5508   10.8388 C.3     1  UNL1        0.0741
     27 C          65.9561   93.5953   10.2331 C.3     1  UNL1        0.0189
     28 N          63.8486   92.0819   10.0988 N.3     1  UNL1       -0.2969
     29 H          64.1717   91.7113    9.2051 H       1  UNL1        0.1233
@<TRIPOS>BOND
     1    20    19    1
     2    20    21    1
     3    21    22    1
     4    22    23   am
     5    23    24    2
     6    23    17    1
     7    17    18    1
     8    17     1    1
     9     1     2    1
    10     2     3    1
    11     3     4    1
    12     4     7    1
    13     7     8   am
    14     8     9    2
    15     8    10    1
    16    10    11    2
    17    11    12    1
    18    12    13    1
    19    13    14    2
    20    14    15    1
    21    15    16    2
    22     4     5    1
    23     5     6    1
    24    22    25    1
    25    25    26    1
    26    26    27    1
    27    26    28    1
    28    28    20    1
    29     6     1    1
    30    16     7    1
    31    16    11    1
    32    28    29    1
