@<TRIPOS>MOLECULE
*****
 33 37 0 0 0
SMALL
GASTEIGER

@<TRIPOS>ATOM
      1 C          61.3797   88.5977   11.1436 C.3     1  UNL1        0.1096
      2 C          60.3900   89.2519   10.2254 C.3     1  UNL1        0.1622
      3 O          59.7948   88.4754    9.0884 O.3     1  UNL1       -0.3502
      4 C          60.1892   87.0448    8.8695 C.3     1  UNL1        0.1637
      5 C          61.1787   86.3907    9.7875 C.3     1  UNL1        0.1257
      6 N          61.7740   87.1671   10.9246 N.am    1  UNL1       -0.2723
      7 C          62.7636   86.5130   11.8426 C.2     1  UNL1        0.2506
      8 O          63.3588   87.2894   12.9796 O.2     1  UNL1       -0.2699
      9 C          63.1579   85.0824   11.6236 C.ar    1  UNL1        0.0729
     10 C          63.3260   84.5558   10.2292 C.ar    1  UNL1        0.0061
     11 C          63.7203   83.1252   10.0103 C.ar    1  UNL1        0.0002
     12 C          63.9466   82.2213   11.1857 C.ar    1  UNL1        0.0016
     13 C          63.7785   82.7479   12.5801 C.ar    1  UNL1        0.0211
     14 C          63.3842   84.1785   12.7990 C.ar    1  UNL1        0.1072
     15 N          63.2161   84.7051   14.1935 N.ar    1  UNL1       -0.1477
     16 N          64.2898   85.3267   15.0366 N.ar    1  UNL1       -0.1447
     17 C          63.6822   85.7083   16.3538 C.ar    1  UNL1        0.1446
     18 C          62.2329   85.3226   16.3248 C.ar    1  UNL1        0.1446
     19 N          61.9449   84.7026   14.9897 N.ar    1  UNL1       -0.1447
     20 C          61.9749   89.3741   12.2806 C.3     1  UNL1        0.0487
     21 C          65.2870   92.3197   11.5036 C.ar    1  UNL1        0.1431
     22 C          64.3229   91.9693   10.4092 C.ar    1  UNL1        0.0367
     23 C          63.2189   90.9874   10.6682 C.ar    1  UNL1       -0.0011
     24 C          63.0789   90.3560   12.0216 C.ar    1  UNL1       -0.0201
     25 C          64.0430   90.7064   13.1160 C.ar    1  UNL1        0.0035
     26 C          65.1470   91.6882   12.8570 C.ar    1  UNL1        0.0871
     27 C          66.1112   92.0386   13.9514 C.ar    1  UNL1        0.2328
     28 N          65.7663   92.7045   15.2505 N.ar    1  UNL1       -0.2064
     29 C          67.0314   92.8620   16.0409 C.ar    1  UNL1        0.1427
     30 C          68.1582   92.2934   15.2303 C.ar    1  UNL1        0.2021
     31 O          67.5895   91.7845   13.9389 O.2     1  UNL1       -0.4313
     32 C          66.1592   94.7667   11.4670 C.3     1  UNL1        0.2525
     33 O          66.3910   93.3015   11.2446 O.3     1  UNL1       -0.4713
@<TRIPOS>BOND
     1    32    33    1
     2    33    21    1
     3    21    22   ar
     4    22    23   ar
     5    23    24   ar
     6    24    20    1
     7     1    20    1
     8     1     2    1
     9     2     3    1
    10     3     4    1
    11     4     5    1
    12     5     6    1
    13     6     7   am
    14     7     8    2
    15     7     9    1
    16     9    10   ar
    17    10    11   ar
    18    11    12   ar
    19    12    13   ar
    20    13    14   ar
    21    14    15    1
    22    15    16   ar
    23    16    17   ar
    24    17    18   ar
    25    18    19   ar
    26    24    25   ar
    27    25    26   ar
    28    26    27    1
    29    27    28   ar
    30    28    29   ar
    31    29    30   ar
    32    30    31   ar
    33    26    21   ar
    34    31    27   ar
    35     6     1    1
    36    14     9   ar
    37    19    15   ar
@<TRIPOS>MOLECULE
*****
 33 37 0 0 0
SMALL
GASTEIGER

@<TRIPOS>ATOM
      1 C          61.9791   89.5399   11.8542 C.3     1  UNL1        0.1096
      2 C          61.2225   90.6058   11.1182 C.3     1  UNL1        0.1622
      3 O          60.6300   90.3113    9.7721 O.3     1  UNL1       -0.3502
      4 C          60.7940   88.9509    9.1618 C.3     1  UNL1        0.1637
      5 C          61.5505   87.8850    9.8977 C.3     1  UNL1        0.1257
      6 N          62.1431   88.1795   11.2439 N.am    1  UNL1       -0.2723
      7 C          62.8996   87.1136   11.9798 C.2     1  UNL1        0.2506
      8 O          63.4921   87.4081   13.3259 O.2     1  UNL1       -0.2699
      9 C          63.0635   85.7532   11.3695 C.ar    1  UNL1        0.0729
     10 C          63.0697   85.5962    9.8778 C.ar    1  UNL1        0.0061
     11 C          63.2337   84.2358    9.2676 C.ar    1  UNL1        0.0002
     12 C          63.3915   83.0324   10.1490 C.ar    1  UNL1        0.0016
     13 C          63.3853   83.1895   11.6407 C.ar    1  UNL1        0.0211
     14 C          63.2213   84.5499   12.2510 C.ar    1  UNL1        0.1072
     15 N          63.2152   84.7069   13.7428 N.ar    1  UNL1       -0.1477
     16 N          62.0085   84.6401   14.6314 N.ar    1  UNL1       -0.1447
     17 C          62.4621   84.8502   16.0456 C.ar    1  UNL1        0.1446
     18 C          63.9491   85.0468   16.0311 C.ar    1  UNL1        0.1446
     19 N          64.4145   84.9583   14.6079 N.ar    1  UNL1       -0.1447
     20 C          62.5716   89.8344   13.2003 C.3     1  UNL1        0.0487
     21 C          66.4952   92.0170   13.5029 C.ar    1  UNL1        0.1431
     22 C          66.0517   91.1138   14.6153 C.ar    1  UNL1        0.0367
     23 C          64.7438   90.3863   14.5144 C.ar    1  UNL1       -0.0011
     24 C          63.8795   90.5620   13.3012 C.ar    1  UNL1       -0.0201
     25 C          64.3230   91.4651   12.1888 C.ar    1  UNL1        0.0035
     26 C          65.6309   92.1927   12.2897 C.ar    1  UNL1        0.0871
     27 C          66.0745   93.0959   11.1772 C.ar    1  UNL1        0.2328
     28 N          67.1054   92.7725   10.1368 N.ar    1  UNL1       -0.2064
     29 C          67.2330   93.9578    9.2264 C.ar    1  UNL1        0.1427
     30 C          66.2809   95.0138    9.7042 C.ar    1  UNL1        0.2021
     31 O          65.5649   94.4811   10.9099 O.2     1  UNL1       -0.4313
     32 C          68.6151   92.6567   14.8619 C.3     1  UNL1        0.2525
     33 O          67.8031   92.7445   13.6038 O.3     1  UNL1       -0.4713
@<TRIPOS>BOND
     1    32    33    1
     2    33    21    1
     3    21    22   ar
     4    22    23   ar
     5    23    24   ar
     6    24    20    1
     7     1    20    1
     8     1     2    1
     9     2     3    1
    10     3     4    1
    11     4     5    1
    12     5     6    1
    13     6     7   am
    14     7     8    2
    15     7     9    1
    16     9    10   ar
    17    10    11   ar
    18    11    12   ar
    19    12    13   ar
    20    13    14   ar
    21    14    15    1
    22    15    16   ar
    23    16    17   ar
    24    17    18   ar
    25    18    19   ar
    26    24    25   ar
    27    25    26   ar
    28    26    27    1
    29    27    28   ar
    30    28    29   ar
    31    29    30   ar
    32    30    31   ar
    33    26    21   ar
    34    31    27   ar
    35     6     1    1
    36    14     9   ar
    37    19    15   ar
@<TRIPOS>MOLECULE
*****
 33 37 0 0 0
SMALL
GASTEIGER

@<TRIPOS>ATOM
      1 C          63.3013   88.8144   15.3910 C.3     1  UNL1        0.1096
      2 C          63.1564   89.1660   16.8421 C.3     1  UNL1        0.1622
      3 O          63.0933   88.0796   17.8744 O.3     1  UNL1       -0.3502
      4 C          63.1751   86.6415   17.4557 C.3     1  UNL1        0.1637
      5 C          63.3200   86.2899   16.0048 C.3     1  UNL1        0.1257
      6 N          63.3831   87.3763   14.9724 N.am    1  UNL1       -0.2723
      7 C          63.5280   87.0247   13.5214 C.2     1  UNL1        0.2506
      8 O          63.5911   88.1111   12.4892 O.2     1  UNL1       -0.2699
      9 C          63.6098   85.5866   13.1028 C.ar    1  UNL1        0.0729
     10 C          64.4444   84.6220   13.8920 C.ar    1  UNL1        0.0061
     11 C          64.5262   83.1840   13.4734 C.ar    1  UNL1        0.0002
     12 C          63.7735   82.7105   12.2655 C.ar    1  UNL1        0.0016
     13 C          62.9389   83.6751   11.4762 C.ar    1  UNL1        0.0211
     14 C          62.8570   85.1131   11.8949 C.ar    1  UNL1        0.1072
     15 N          62.0224   86.0777   11.1056 N.ar    1  UNL1       -0.1477
     16 N          62.2371   86.4610    9.6713 N.ar    1  UNL1       -0.1447
     17 C          61.1740   87.4485    9.2912 C.ar    1  UNL1        0.1446
     18 C          60.3022   87.6756   10.4906 C.ar    1  UNL1        0.1446
     19 N          60.8265   86.8284   11.6119 N.ar    1  UNL1       -0.1447
     20 C          63.3644   89.9008   14.3588 C.3     1  UNL1        0.0487
     21 C          66.6428   92.9787   14.5289 C.ar    1  UNL1        0.1431
     22 C          66.0885   92.4024   15.7980 C.ar    1  UNL1        0.0367
     23 C          64.9957   91.3764   15.7413 C.ar    1  UNL1       -0.0011
     24 C          64.4572   90.9268   14.4155 C.ar    1  UNL1       -0.0201
     25 C          65.0114   91.5031   13.1464 C.ar    1  UNL1        0.0035
     26 C          66.1042   92.5290   13.2031 C.ar    1  UNL1        0.0871
     27 C          66.6585   93.1054   11.9340 C.ar    1  UNL1        0.2328
     28 N          66.4616   94.5091   11.4433 N.ar    1  UNL1       -0.2064
     29 C          67.1884   94.6504   10.1388 C.ar    1  UNL1        0.1427
     30 C          67.8345   93.3339    9.8232 C.ar    1  UNL1        0.2021
     31 O          67.5070   92.3791   10.9327 O.2     1  UNL1       -0.4313
     32 C          68.7162   93.9938   15.7206 C.3     1  UNL1        0.2525
     33 O          67.7355   94.0046   14.5857 O.3     1  UNL1       -0.4713
@<TRIPOS>BOND
     1    32    33    1
     2    33    21    1
     3    21    22   ar
     4    22    23   ar
     5    23    24   ar
     6    24    20    1
     7     1    20    1
     8     1     2    1
     9     2     3    1
    10     3     4    1
    11     4     5    1
    12     5     6    1
    13     6     7   am
    14     7     8    2
    15     7     9    1
    16     9    10   ar
    17    10    11   ar
    18    11    12   ar
    19    12    13   ar
    20    13    14   ar
    21    14    15    1
    22    15    16   ar
    23    16    17   ar
    24    17    18   ar
    25    18    19   ar
    26    24    25   ar
    27    25    26   ar
    28    26    27    1
    29    27    28   ar
    30    28    29   ar
    31    29    30   ar
    32    30    31   ar
    33    26    21   ar
    34    31    27   ar
    35     6     1    1
    36    14     9   ar
    37    19    15   ar
