@<TRIPOS>MOLECULE
*****
 28 31 0 0 0
SMALL
GASTEIGER

@<TRIPOS>ATOM
      1 C          62.1655   89.0205   11.8032 C.ar    1  UNL1        0.1917
      2 N          62.1567   88.5537   13.2287 N.ar    1  UNL1       -0.1268
      3 N          63.1169   89.4080   14.0021 N.ar    1  UNL1       -0.1316
      4 C          63.7192   90.4028   13.0546 C.ar    1  UNL1        0.1616
      5 N          63.1312   90.1633   11.6956 N.ar    1  UNL1       -0.2940
      6 C          63.5510   91.0167   10.5357 C.3     1  UNL1        0.1302
      7 C          64.5590   92.1097   10.7348 C.3     1  UNL1        0.1186
      8 N          65.1470   92.3492   12.0938 N.am    1  UNL1       -0.2687
      9 C          66.1548   93.4421   12.2929 C.2     1  UNL1        0.2494
     10 O          66.7428   93.6816   13.6519 O.2     1  UNL1       -0.2699
     11 C          64.7271   91.4957   13.2537 C.3     1  UNL1        0.1367
     12 C          66.5747   94.2955   11.1330 C.ar    1  UNL1        0.0537
     13 C          67.4564   93.7246   10.0623 C.ar    1  UNL1        0.0068
     14 C          67.8763   94.5781    8.9023 C.ar    1  UNL1        0.0298
     15 C          67.4144   96.0024    8.8132 C.ar    1  UNL1        0.1401
     16 F          67.8342   96.8559    7.6533 F       1  UNL1       -0.2042
     17 C          66.5326   96.5733    9.8840 C.ar    1  UNL1        0.0298
     18 C          66.1128   95.7199   11.0439 C.ar    1  UNL1        0.0068
     19 C          59.2116   88.5944    7.4474 C.3     1  UNL1        0.0744
     20 C          59.9938   88.2497    8.6800 C.ar    1  UNL1        0.1481
     21 N          60.2042   86.8717    9.2339 N.ar    1  UNL1       -0.1929
     22 S          61.0434   86.9927   10.4713 S.2     1  UNL1        0.0369
     23 C          61.3516   88.4455   10.6821 C.ar    1  UNL1        0.1652
     24 N          60.7029   89.2224    9.5750 N.ar    1  UNL1       -0.2190
     25 C          65.3151   91.7352   14.6127 C.3     1  UNL1        0.0593
     26 C          64.4332   91.7133   15.8260 C.3     1  UNL1        0.1393
     27 O          64.6551   92.7016   16.9323 O.3     1  UNL1       -0.3819
     28 H          65.5127   92.5301   17.3519 H       1  UNL1        0.2104
@<TRIPOS>BOND
     1    19    20    1
     2    20    21   ar
     3    21    22   ar
     4    22    23   ar
     5    23     1    1
     6     1     2   ar
     7     2     3   ar
     8     3     4   ar
     9     4     5   ar
    10     5     6    1
    11     6     7    1
    12     7     8    1
    13     8     9   am
    14     9    10    2
    15     9    12    1
    16    12    13   ar
    17    13    14   ar
    18    14    15   ar
    19    15    16    1
    20    15    17   ar
    21    17    18   ar
    22     8    11    1
    23    11    25    1
    24    25    26    1
    25    26    27    1
    26    23    24   ar
    27    24    20   ar
    28     5     1   ar
    29    18    12   ar
    30    11     4    1
    31    27    28    1
@<TRIPOS>MOLECULE
*****
 28 31 0 0 0
SMALL
GASTEIGER

@<TRIPOS>ATOM
      1 C          64.2745   91.0819   13.3666 C.ar    1  UNL1        0.1917
      2 N          63.5860   91.9474   12.3533 N.ar    1  UNL1       -0.1268
      3 N          62.7888   91.0561   11.4477 N.ar    1  UNL1       -0.1316
      4 C          62.9845   89.6398   11.9014 C.ar    1  UNL1        0.1616
      5 N          63.9028   89.6558   13.0874 N.ar    1  UNL1       -0.2940
      6 C          64.2818   88.3697   13.7598 C.3     1  UNL1        0.1302
      7 C          63.7426   87.0675   13.2463 C.3     1  UNL1        0.1186
      8 N          62.8243   87.0516   12.0603 N.am    1  UNL1       -0.2687
      9 C          62.2851   85.7495   11.5468 C.2     1  UNL1        0.2494
     10 O          61.3668   85.7335   10.3608 O.2     1  UNL1       -0.2699
     11 C          62.4453   88.3378   11.3879 C.3     1  UNL1        0.1367
     12 C          62.6641   84.4634   12.2192 C.ar    1  UNL1        0.0537
     13 C          62.3308   84.2466   13.6655 C.ar    1  UNL1        0.0068
     14 C          62.7098   82.9604   14.3379 C.ar    1  UNL1        0.0298
     15 C          63.4222   81.8911   13.5640 C.ar    1  UNL1        0.1401
     16 F          63.8013   80.6048   14.2364 F       1  UNL1       -0.2042
     17 C          63.7556   82.1078   12.1177 C.ar    1  UNL1        0.0298
     18 C          63.3765   83.3939   11.4453 C.ar    1  UNL1        0.0068
     19 C          68.5871   92.4821   16.0724 C.3     1  UNL1        0.0744
     20 C          67.1587   92.2024   15.7099 C.ar    1  UNL1        0.1481
     21 N          65.9700   92.3831   16.6067 N.ar    1  UNL1       -0.1929
     22 S          64.7448   91.9853   15.8380 S.2     1  UNL1        0.0369
     23 C          65.1764   91.5589   14.4662 C.ar    1  UNL1        0.1652
     24 N          66.6683   91.6930   14.3871 N.ar    1  UNL1       -0.2190
     25 C          61.5271   88.3218   10.2019 C.3     1  UNL1        0.0593
     26 C          60.2203   89.0565   10.2552 C.3     1  UNL1        0.1393
     27 O          60.1600   90.5077    9.8805 O.3     1  UNL1       -0.3819
     28 H          60.6657   91.0290   10.5235 H       1  UNL1        0.2104
@<TRIPOS>BOND
     1    19    20    1
     2    20    21   ar
     3    21    22   ar
     4    22    23   ar
     5    23     1    1
     6     1     2   ar
     7     2     3   ar
     8     3     4   ar
     9     4     5   ar
    10     5     6    1
    11     6     7    1
    12     7     8    1
    13     8     9   am
    14     9    10    2
    15     9    12    1
    16    12    13   ar
    17    13    14   ar
    18    14    15   ar
    19    15    16    1
    20    15    17   ar
    21    17    18   ar
    22     8    11    1
    23    11    25    1
    24    25    26    1
    25    26    27    1
    26    23    24   ar
    27    24    20   ar
    28     5     1   ar
    29    18    12   ar
    30    11     4    1
    31    27    28    1
@<TRIPOS>MOLECULE
*****
 28 31 0 0 0
SMALL
GASTEIGER

@<TRIPOS>ATOM
      1 C          62.4325   84.8417   11.9530 C.ar    1  UNL1        0.1917
      2 N          61.6199   84.8429   10.6922 N.ar    1  UNL1       -0.1268
      3 N          61.5456   86.2544   10.1900 N.ar    1  UNL1       -0.1316
      4 C          62.3121   87.1256   11.1405 C.ar    1  UNL1        0.1616
      5 N          62.8603   86.2525   12.2301 N.ar    1  UNL1       -0.2940
      6 C          63.6781   86.8549   13.3339 C.3     1  UNL1        0.1302
      7 C          63.9478   88.3304   13.3480 C.3     1  UNL1        0.1186
      8 N          63.3997   89.2035   12.2584 N.am    1  UNL1       -0.2687
      9 C          63.6694   90.6789   12.2724 C.2     1  UNL1        0.2494
     10 O          63.1213   91.5520   11.1828 O.2     1  UNL1       -0.2699
     11 C          62.5819   88.6010   11.1546 C.3     1  UNL1        0.1367
     12 C          64.4873   91.2813   13.3762 C.ar    1  UNL1        0.0537
     13 C          64.0385   91.1471   14.8012 C.ar    1  UNL1        0.0068
     14 C          64.8565   91.7495   15.9049 C.ar    1  UNL1        0.0298
     15 C          66.1230   92.4861   15.5836 C.ar    1  UNL1        0.1401
     16 F          66.9409   93.0885   16.6874 F       1  UNL1       -0.2042
     17 C          66.5717   92.6203   14.1586 C.ar    1  UNL1        0.0298
     18 C          65.7539   92.0179   13.0549 C.ar    1  UNL1        0.0068
     19 C          62.7600   79.8628   13.6803 C.3     1  UNL1        0.0744
     20 C          62.9103   81.3521   13.5838 C.ar    1  UNL1        0.1481
     21 N          63.6165   82.2327   14.5717 N.ar    1  UNL1       -0.1929
     22 S          63.5234   83.6472   14.0809 S.2     1  UNL1        0.0369
     23 C          62.7597   83.6407   12.7899 C.ar    1  UNL1        0.1652
     24 N          62.3808   82.2222   12.4827 N.ar    1  UNL1       -0.2190
     25 C          62.0337   89.4741   10.0650 C.3     1  UNL1        0.0593
     26 C          60.5509   89.5838    9.8663 C.3     1  UNL1        0.1393
     27 O          59.8138   90.7887   10.3711 O.3     1  UNL1       -0.3819
     28 H          59.8495   90.8071   11.3403 H       1  UNL1        0.2104
@<TRIPOS>BOND
     1    19    20    1
     2    20    21   ar
     3    21    22   ar
     4    22    23   ar
     5    23     1    1
     6     1     2   ar
     7     2     3   ar
     8     3     4   ar
     9     4     5   ar
    10     5     6    1
    11     6     7    1
    12     7     8    1
    13     8     9   am
    14     9    10    2
    15     9    12    1
    16    12    13   ar
    17    13    14   ar
    18    14    15   ar
    19    15    16    1
    20    15    17   ar
    21    17    18   ar
    22     8    11    1
    23    11    25    1
    24    25    26    1
    25    26    27    1
    26    23    24   ar
    27    24    20   ar
    28     5     1   ar
    29    18    12   ar
    30    11     4    1
    31    27    28    1
@<TRIPOS>MOLECULE
*****
 28 31 0 0 0
SMALL
GASTEIGER

@<TRIPOS>ATOM
      1 C          63.0623   88.7922   12.7574 C.ar    1  UNL1        0.1917
      2 N          63.2026   88.5082   14.2236 N.ar    1  UNL1       -0.1268
      3 N          64.0508   89.5889   14.8259 N.ar    1  UNL1       -0.1316
      4 C          64.4347   90.5407   13.7320 C.ar    1  UNL1        0.1616
      5 N          63.8237   90.0484   12.4536 N.ar    1  UNL1       -0.2940
      6 C          64.0397   90.8074   11.1780 C.3     1  UNL1        0.1302
      7 C          64.8666   92.0590   11.1808 C.3     1  UNL1        0.1186
      8 N          65.4776   92.5513   12.4592 N.am    1  UNL1       -0.2687
      9 C          66.3045   93.8028   12.4620 C.2     1  UNL1        0.2494
     10 O          66.9154   94.2951   13.7404 O.2     1  UNL1       -0.2699
     11 C          65.2616   91.7922   13.7348 C.3     1  UNL1        0.1367
     12 C          66.5204   94.5618   11.1865 C.ar    1  UNL1        0.0537
     13 C          66.8694   93.8269    9.9262 C.ar    1  UNL1        0.0068
     14 C          67.0853   94.5861    8.6506 C.ar    1  UNL1        0.0298
     15 C          66.9523   96.0801    8.6353 C.ar    1  UNL1        0.1401
     16 F          67.1683   96.8392    7.3596 F       1  UNL1       -0.2042
     17 C          66.6033   96.8150    9.8955 C.ar    1  UNL1        0.0298
     18 C          66.3874   96.0559   11.1710 C.ar    1  UNL1        0.0068
     19 C          59.5369   87.3038    9.1192 C.3     1  UNL1        0.0744
     20 C          60.6747   87.2811   10.0963 C.ar    1  UNL1        0.1481
     21 N          61.5546   86.1043   10.3978 N.ar    1  UNL1       -0.1929
     22 S          62.5561   86.5271   11.4315 S.2     1  UNL1        0.0369
     23 C          62.2952   87.9652   11.7687 C.ar    1  UNL1        0.1652
     24 N          61.1324   88.4313   10.9435 N.ar    1  UNL1       -0.2190
     25 C          65.8725   92.2845   15.0132 C.3     1  UNL1        0.0593
     26 C          65.1958   92.0082   16.3231 C.3     1  UNL1        0.1393
     27 O          64.3884   93.0813   16.9912 O.3     1  UNL1       -0.3819
     28 H          64.9741   93.8060   17.2608 H       1  UNL1        0.2104
@<TRIPOS>BOND
     1    19    20    1
     2    20    21   ar
     3    21    22   ar
     4    22    23   ar
     5    23     1    1
     6     1     2   ar
     7     2     3   ar
     8     3     4   ar
     9     4     5   ar
    10     5     6    1
    11     6     7    1
    12     7     8    1
    13     8     9   am
    14     9    10    2
    15     9    12    1
    16    12    13   ar
    17    13    14   ar
    18    14    15   ar
    19    15    16    1
    20    15    17   ar
    21    17    18   ar
    22     8    11    1
    23    11    25    1
    24    25    26    1
    25    26    27    1
    26    23    24   ar
    27    24    20   ar
    28     5     1   ar
    29    18    12   ar
    30    11     4    1
    31    27    28    1
@<TRIPOS>MOLECULE
*****
 28 31 0 0 0
SMALL
GASTEIGER

@<TRIPOS>ATOM
      1 C          64.0189   90.2124   13.8576 C.ar    1  UNL1        0.1917
      2 N          63.9967   90.6491   15.2925 N.ar    1  UNL1       -0.1268
      3 N          63.8124   89.4290   16.1454 N.ar    1  UNL1       -0.1316
      4 C          63.7207   88.2384   15.2377 C.ar    1  UNL1        0.1616
      5 N          63.8484   88.7225   13.8238 N.ar    1  UNL1       -0.2940
      6 C          63.7928   87.7442   12.6881 C.3     1  UNL1        0.1302
      7 C          63.6096   86.2816   12.9664 C.3     1  UNL1        0.1186
      8 N          63.4819   85.7974   14.3804 N.am    1  UNL1       -0.2687
      9 C          63.2987   84.3350   14.6587 C.2     1  UNL1        0.2494
     10 O          63.1711   83.8508   16.0726 O.2     1  UNL1       -0.2699
     11 C          63.5375   86.7759   15.5160 C.3     1  UNL1        0.1367
     12 C          63.2431   83.3566   13.5230 C.ar    1  UNL1        0.0537
     13 C          62.3226   82.1745   13.5958 C.ar    1  UNL1        0.0068
     14 C          62.2671   81.1962   12.4601 C.ar    1  UNL1        0.0298
     15 C          63.1320   81.4000   11.2517 C.ar    1  UNL1        0.1401
     16 F          63.0764   80.4216   10.1159 F       1  UNL1       -0.2042
     17 C          64.0525   82.5821   11.1789 C.ar    1  UNL1        0.0298
     18 C          64.1081   83.5604   12.3145 C.ar    1  UNL1        0.0068
     19 C          65.7674   94.0106   10.6331 C.3     1  UNL1        0.0744
     20 C          64.9866   92.8542   11.1837 C.ar    1  UNL1        0.1481
     21 N          63.8840   92.1200   10.4799 N.ar    1  UNL1       -0.1929
     22 S          63.3873   91.0409   11.3960 S.2     1  UNL1        0.0369
     23 C          64.1829   91.1083   12.6658 C.ar    1  UNL1        0.1652
     24 N          65.1713   92.2290   12.5346 N.ar    1  UNL1       -0.2190
     25 C          63.4099   86.2917   16.9300 C.3     1  UNL1        0.0593
     26 C          62.0844   86.3592   17.6291 C.3     1  UNL1        0.1393
     27 O          60.8212   86.0791   16.8703 O.3     1  UNL1       -0.3819
     28 H          60.6868   86.7679   16.2007 H       1  UNL1        0.2104
@<TRIPOS>BOND
     1    19    20    1
     2    20    21   ar
     3    21    22   ar
     4    22    23   ar
     5    23     1    1
     6     1     2   ar
     7     2     3   ar
     8     3     4   ar
     9     4     5   ar
    10     5     6    1
    11     6     7    1
    12     7     8    1
    13     8     9   am
    14     9    10    2
    15     9    12    1
    16    12    13   ar
    17    13    14   ar
    18    14    15   ar
    19    15    16    1
    20    15    17   ar
    21    17    18   ar
    22     8    11    1
    23    11    25    1
    24    25    26    1
    25    26    27    1
    26    23    24   ar
    27    24    20   ar
    28     5     1   ar
    29    18    12   ar
    30    11     4    1
    31    27    28    1
@<TRIPOS>MOLECULE
*****
 28 31 0 0 0
SMALL
GASTEIGER

@<TRIPOS>ATOM
      1 C          63.3121   82.8620   13.4621 C.ar    1  UNL1        0.1917
      2 N          63.0592   82.2506   14.8083 N.ar    1  UNL1       -0.1268
      3 N          63.0750   83.3510   15.8275 N.ar    1  UNL1       -0.1316
      4 C          63.3376   84.6425   15.1112 C.ar    1  UNL1        0.1616
      5 N          63.4841   84.3403   13.6493 N.ar    1  UNL1       -0.2940
      6 C          63.7553   85.4503   12.6775 C.3     1  UNL1        0.1302
      7 C          63.8799   86.8625   13.1676 C.3     1  UNL1        0.1186
      8 N          63.7334   87.1647   14.6295 N.am    1  UNL1       -0.2687
      9 C          63.8580   88.5769   15.1196 C.2     1  UNL1        0.2494
     10 O          63.7115   88.8791   16.5815 O.2     1  UNL1       -0.2699
     11 C          63.4622   86.0547   15.6013 C.3     1  UNL1        0.1367
     12 C          64.1291   89.6868   14.1478 C.ar    1  UNL1        0.0537
     13 C          63.2661   89.8461   12.9313 C.ar    1  UNL1        0.0068
     14 C          63.5373   90.9561   11.9594 C.ar    1  UNL1        0.0298
     15 C          64.6714   91.9068   12.2041 C.ar    1  UNL1        0.1401
     16 F          64.9426   93.0168   11.2322 F       1  UNL1       -0.2042
     17 C          65.5344   91.7475   13.4206 C.ar    1  UNL1        0.0298
     18 C          65.2633   90.6376   14.3924 C.ar    1  UNL1        0.0068
     19 C          62.6999   79.1582    9.7489 C.3     1  UNL1        0.0744
     20 C          63.0994   80.4222   10.4510 C.ar    1  UNL1        0.1481
     21 N          63.8737   81.5576    9.8498 N.ar    1  UNL1       -0.1929
     22 S          64.0477   82.6098   10.9047 S.2     1  UNL1        0.0369
     23 C          63.3808   82.1246   12.1577 C.ar    1  UNL1        0.1652
     24 N          62.7948   80.7726   11.8773 N.ar    1  UNL1       -0.2190
     25 C          63.3157   86.3569   17.0632 C.3     1  UNL1        0.0593
     26 C          61.9530   86.3892   17.6895 C.3     1  UNL1        0.1393
     27 O          60.7334   86.1738   16.8433 O.3     1  UNL1       -0.3819
     28 H          60.6412   86.9080   16.2162 H       1  UNL1        0.2104
@<TRIPOS>BOND
     1    19    20    1
     2    20    21   ar
     3    21    22   ar
     4    22    23   ar
     5    23     1    1
     6     1     2   ar
     7     2     3   ar
     8     3     4   ar
     9     4     5   ar
    10     5     6    1
    11     6     7    1
    12     7     8    1
    13     8     9   am
    14     9    10    2
    15     9    12    1
    16    12    13   ar
    17    13    14   ar
    18    14    15   ar
    19    15    16    1
    20    15    17   ar
    21    17    18   ar
    22     8    11    1
    23    11    25    1
    24    25    26    1
    25    26    27    1
    26    23    24   ar
    27    24    20   ar
    28     5     1   ar
    29    18    12   ar
    30    11     4    1
    31    27    28    1
