@<TRIPOS>MOLECULE
*****
 39 41 0 0 0
SMALL
GASTEIGER

@<TRIPOS>ATOM
      1 N          64.0131   86.9769   15.3099 N.am    1  UNL1       -0.2890
      2 C          63.8619   87.6980   14.0032 C.2     1  UNL1        0.3040
      3 O          63.2795   86.9875   12.8175 O.2     1  UNL1       -0.2526
      4 N          64.2932   89.1296   13.8823 N.am    1  UNL1       -0.2641
      5 C          64.8757   89.8401   15.0681 C.3     1  UNL1        0.0949
      6 C          65.3070   91.2716   14.9473 C.3     1  UNL1        0.0217
      7 C          65.1558   91.9927   13.6406 C.3     1  UNL1        0.0062
      8 C          64.5734   91.2822   12.4549 C.3     1  UNL1        0.0514
      9 C          64.1421   89.8506   12.5758 C.3     1  UNL1        0.0977
     10 H          64.3954   87.4433   16.0881 H       1  UNL1        0.1510
     11 C          63.5818   85.5454   15.4308 C.3     1  UNL1        0.0887
     12 C          62.2990   85.2050   16.1297 C.3     1  UNL1        0.0884
     13 C          62.6739   86.6606   18.2487 C.3     1  UNL1        0.0859
     14 N          61.7591   86.1160   17.1921 N.3     1  UNL1       -0.2949
     15 H          61.3522   86.9190   16.7125 H       1  UNL1        0.1233
     16 C          64.4334   84.4542   14.8527 C.3     1  UNL1        0.0212
     17 C          63.8624   83.5215   13.8259 C.3     1  UNL1        0.0067
     18 C          62.9331   82.4216   14.2461 C.3     1  UNL1        0.0322
     19 C          62.3622   81.4890   13.2193 C.3     1  UNL1        0.1422
     20 O          62.7206   81.6564   11.7724 O.3     1  UNL1       -0.3538
     21 C          63.6498   82.7563   11.3522 C.3     1  UNL1        0.1422
     22 C          64.2207   83.6889   12.3790 C.3     1  UNL1        0.0322
     23 C          64.4222   92.0033   11.1483 C.3     1  UNL1        0.1391
     24 C          65.5389   92.8612   10.6316 C.ar    1  UNL1        0.0054
     25 C          65.4002   94.3548   10.6345 C.ar    1  UNL1       -0.0019
     26 C          66.5168   95.2127   10.1177 C.ar    1  UNL1        0.0006
     27 C          67.7722   94.5771    9.5981 C.ar    1  UNL1        0.0114
     28 C          67.9110   93.0835    9.5953 C.ar    1  UNL1        0.0574
     29 CL         69.1663   92.4479    9.0757 Cl      1  UNL1       -0.0823
     30 C          66.7943   92.2255   10.1120 C.ar    1  UNL1        0.0095
     31 O          63.1544   91.8664   10.3584 O.3     1  UNL1       -0.3500
     32 C          62.5890   90.5058   10.0773 C.3     1  UNL1        0.1638
     33 C          61.1237   90.2484   10.2683 C.3     1  UNL1        0.1247
     34 N          60.3948   89.3315    9.3312 N.am    1  UNL1       -0.2681
     35 C          60.0674   87.9307    9.7559 C.2     1  UNL1        0.4018
     36 O          60.4688   87.4467   11.1177 O.2     1  UNL1       -0.2264
     37 H          60.1314   89.6492    8.4373 H       1  UNL1        0.1528
     38 O          59.3386   87.0138    8.8187 O.3     1  UNL1       -0.4306
     39 C          60.1084   86.1543    7.8604 C.3     1  UNL1        0.2573
@<TRIPOS>BOND
     1    13    14    1
     2    14    12    1
     3    11    12    1
     4    11    16    1
     5    16    17    1
     6    17    18    1
     7    18    19    1
     8    19    20    1
     9    20    21    1
    10    21    22    1
    11    11     1    1
    12     1     2   am
    13     2     3    2
    14     2     4   am
    15     4     5    1
    16     5     6    1
    17     6     7    1
    18     8     7    1
    19     8    23    1
    20    23    31    1
    21    31    32    1
    22    32    33    1
    23    33    34    1
    24    34    35   am
    25    35    36    2
    26    35    38    1
    27    38    39    1
    28    23    24    1
    29    24    25   ar
    30    25    26   ar
    31    26    27   ar
    32    27    28   ar
    33    28    29    1
    34    28    30   ar
    35     8     9    1
    36    22    17    1
    37     9     4    1
    38    30    24   ar
    39    14    15    1
    40     1    10    1
    41    34    37    1
@<TRIPOS>MOLECULE
*****
 39 41 0 0 0
SMALL
GASTEIGER

@<TRIPOS>ATOM
      1 N          63.3103   90.9388   14.0316 N.am    1  UNL1       -0.2890
      2 C          63.2385   89.6230   13.3148 C.2     1  UNL1        0.3040
      3 O          63.9327   88.4207   13.8826 O.2     1  UNL1       -0.2526
      4 N          62.4723   89.5097   12.0302 N.am    1  UNL1       -0.2641
      5 C          61.7780   90.7121   11.4624 C.3     1  UNL1        0.0949
      6 C          61.0119   90.5987   10.1778 C.3     1  UNL1        0.0217
      7 C          60.9400   89.2829    9.4610 C.3     1  UNL1        0.0062
      8 C          61.6343   88.0807   10.0288 C.3     1  UNL1        0.0514
      9 C          62.4004   88.1940   11.3134 C.3     1  UNL1        0.0977
     10 H          62.8546   91.7279   13.6589 H       1  UNL1        0.1510
     11 C          64.0764   91.0521   15.3162 C.3     1  UNL1        0.0887
     12 C          63.5411   90.4205   16.5670 C.3     1  UNL1        0.0884
     13 C          62.9891   87.9737   17.2437 C.3     1  UNL1        0.0859
     14 N          62.6495   89.2176   16.4774 N.3     1  UNL1       -0.2949
     15 H          61.7245   89.5127   16.7900 H       1  UNL1        0.1233
     16 C          65.3779   91.7971   15.3500 C.3     1  UNL1        0.0212
     17 C          66.1689   91.9827   14.0890 C.3     1  UNL1        0.0067
     18 C          65.5065   92.5381   12.8631 C.3     1  UNL1        0.0322
     19 C          66.2975   92.7237   11.6022 C.3     1  UNL1        0.1422
     20 O          67.7507   92.3539   11.5672 O.3     1  UNL1       -0.3538
     21 C          68.4131   91.7986   12.7931 C.3     1  UNL1        0.1422
     22 C          67.6222   91.6130   14.0540 C.3     1  UNL1        0.0322
     23 C          61.5624   86.7650    9.3120 C.3     1  UNL1        0.1391
     24 C          62.2984   85.5751    9.8528 C.ar    1  UNL1        0.0054
     25 C          63.2417   84.8122    8.9707 C.ar    1  UNL1       -0.0019
     26 C          63.9777   83.6223    9.5115 C.ar    1  UNL1        0.0006
     27 C          63.7703   83.1952   10.9343 C.ar    1  UNL1        0.0114
     28 C          62.8269   83.9581   11.8165 C.ar    1  UNL1        0.0574
     29 CL         62.6196   83.5311   13.2394 Cl      1  UNL1       -0.0823
     30 C          62.0910   85.1480   11.2757 C.ar    1  UNL1        0.0095
     31 O          60.7546   86.6392    8.0543 O.3     1  UNL1       -0.3500
     32 C          59.2822   86.9248    8.0770 C.3     1  UNL1        0.1638
     33 C          58.7211   88.0372    7.2419 C.3     1  UNL1        0.1247
     34 N          59.6449   88.9997    6.5561 N.am    1  UNL1       -0.2681
     35 C          59.0856   90.1798    5.8182 C.2     1  UNL1        0.4018
     36 O          57.6024   90.3975    5.7662 O.2     1  UNL1       -0.2264
     37 H          60.6184   88.8568    6.5902 H       1  UNL1        0.1528
     38 O          60.0094   91.1422    5.1324 O.3     1  UNL1       -0.4306
     39 C          59.4498   92.3200    4.3911 C.3     1  UNL1        0.2573
@<TRIPOS>BOND
     1    13    14    1
     2    14    12    1
     3    11    12    1
     4    11    16    1
     5    16    17    1
     6    17    18    1
     7    18    19    1
     8    19    20    1
     9    20    21    1
    10    21    22    1
    11    11     1    1
    12     1     2   am
    13     2     3    2
    14     2     4   am
    15     4     5    1
    16     5     6    1
    17     6     7    1
    18     8     7    1
    19     8    23    1
    20    23    31    1
    21    31    32    1
    22    32    33    1
    23    33    34    1
    24    34    35   am
    25    35    36    2
    26    35    38    1
    27    38    39    1
    28    23    24    1
    29    24    25   ar
    30    25    26   ar
    31    26    27   ar
    32    27    28   ar
    33    28    29    1
    34    28    30   ar
    35     8     9    1
    36    22    17    1
    37     9     4    1
    38    30    24   ar
    39    14    15    1
    40     1    10    1
    41    34    37    1
@<TRIPOS>MOLECULE
*****
 39 41 0 0 0
SMALL
GASTEIGER

@<TRIPOS>ATOM
      1 N          64.3772   91.7204   13.6550 N.am    1  UNL1       -0.2890
      2 C          64.1225   90.2691   13.3738 C.2     1  UNL1        0.3040
      3 O          64.8541   89.2150   14.1507 O.2     1  UNL1       -0.2526
      4 N          63.1364   89.8720   12.3156 N.am    1  UNL1       -0.2641
      5 C          62.4049   90.9263   11.5386 C.3     1  UNL1        0.0949
      6 C          61.4187   90.5292   10.4804 C.3     1  UNL1        0.0217
      7 C          61.1640   89.0779   10.1991 C.3     1  UNL1        0.0062
      8 C          61.8955   88.0238   10.9761 C.3     1  UNL1        0.0514
      9 C          62.8817   88.4209   12.0343 C.3     1  UNL1        0.0977
     10 H          63.8971   92.4123   13.1451 H       1  UNL1        0.1510
     11 C          65.3634   92.1174   14.7132 C.3     1  UNL1        0.0887
     12 C          65.0063   91.9738   16.1631 C.3     1  UNL1        0.0884
     13 C          63.2577   90.1619   16.8029 C.3     1  UNL1        0.0859
     14 N          63.6083   91.5996   16.5576 N.3     1  UNL1       -0.2949
     15 H          63.4004   92.1045   17.4191 H       1  UNL1        0.1233
     16 C          66.7066   92.6581   14.3217 C.3     1  UNL1        0.0212
     17 C          67.0066   92.9506   12.8813 C.3     1  UNL1        0.0067
     18 C          67.8622   92.0087   12.0872 C.3     1  UNL1        0.0322
     19 C          68.1622   92.3011   10.6470 C.3     1  UNL1        0.1422
     20 O          67.6065   93.5355   10.0008 O.3     1  UNL1       -0.3538
     21 C          66.7508   94.4774   10.7949 C.3     1  UNL1        0.1422
     22 C          66.4508   94.1849   12.2351 C.3     1  UNL1        0.0322
     23 C          61.6409   86.5726   10.6948 C.3     1  UNL1        0.1391
     24 C          61.3496   86.1199    9.2947 C.ar    1  UNL1        0.0054
     25 C          59.9856   86.3297    8.7071 C.ar    1  UNL1       -0.0019
     26 C          59.6943   85.8769    7.3070 C.ar    1  UNL1        0.0006
     27 C          60.7671   85.2144    6.4946 C.ar    1  UNL1        0.0114
     28 C          62.1313   85.0046    7.0822 C.ar    1  UNL1        0.0574
     29 CL         63.2040   84.3420    6.2697 Cl      1  UNL1       -0.0823
     30 C          62.4225   85.4573    8.4823 C.ar    1  UNL1        0.0095
     31 O          61.6774   85.5741   11.8136 O.3     1  UNL1       -0.3500
     32 C          62.9579   84.8673   12.1465 C.3     1  UNL1        0.1638
     33 C          63.0653   84.0653   13.4095 C.3     1  UNL1        0.1247
     34 N          62.2512   84.4452   14.6107 N.am    1  UNL1       -0.2681
     35 C          62.8984   85.1590   15.7603 C.2     1  UNL1        0.4018
     36 O          64.3599   85.4929   15.7087 O.2     1  UNL1       -0.2264
     37 H          61.2920   84.2260   14.6446 H       1  UNL1        0.1528
     38 O          62.0843   85.5388   16.9615 O.3     1  UNL1       -0.4306
     39 C          62.5987   86.5713   17.9203 C.3     1  UNL1        0.2573
@<TRIPOS>BOND
     1    13    14    1
     2    14    12    1
     3    11    12    1
     4    11    16    1
     5    16    17    1
     6    17    18    1
     7    18    19    1
     8    19    20    1
     9    20    21    1
    10    21    22    1
    11    11     1    1
    12     1     2   am
    13     2     3    2
    14     2     4   am
    15     4     5    1
    16     5     6    1
    17     6     7    1
    18     8     7    1
    19     8    23    1
    20    23    31    1
    21    31    32    1
    22    32    33    1
    23    33    34    1
    24    34    35   am
    25    35    36    2
    26    35    38    1
    27    38    39    1
    28    23    24    1
    29    24    25   ar
    30    25    26   ar
    31    26    27   ar
    32    27    28   ar
    33    28    29    1
    34    28    30   ar
    35     8     9    1
    36    22    17    1
    37     9     4    1
    38    30    24   ar
    39    14    15    1
    40     1    10    1
    41    34    37    1
@<TRIPOS>MOLECULE
*****
 39 41 0 0 0
SMALL
GASTEIGER

@<TRIPOS>ATOM
      1 N          64.4136   91.3433   12.4125 N.am    1  UNL1       -0.2890
      2 C          64.3007   89.9658   12.9956 C.2     1  UNL1        0.3040
      3 O          65.0324   89.6242   14.2596 O.2     1  UNL1       -0.2526
      4 N          63.4562   88.9301   12.3145 N.am    1  UNL1       -0.2641
      5 C          62.7245   89.2718   11.0504 C.3     1  UNL1        0.0949
      6 C          61.8799   88.2361   10.3693 C.3     1  UNL1        0.0217
      7 C          61.7670   86.8586   10.9523 C.3     1  UNL1        0.0062
      8 C          62.4987   86.5169   12.2164 C.3     1  UNL1        0.0514
      9 C          63.3433   87.5526   12.8974 C.3     1  UNL1        0.0977
     10 H          63.9334   91.5676   11.5829 H       1  UNL1        0.1510
     11 C          65.2582   92.3791   13.0936 C.3     1  UNL1        0.0887
     12 C          65.6496   92.2011   14.5308 C.3     1  UNL1        0.0884
     13 C          67.9217   93.2027   15.2949 C.3     1  UNL1        0.0859
     14 N          66.4246   93.2747   15.2355 N.3     1  UNL1       -0.2949
     15 H          66.1901   94.1557   14.7781 H       1  UNL1        0.1233
     16 C          65.7115   93.5928   12.3377 C.3     1  UNL1        0.0212
     17 C          66.5697   93.4389   11.1170 C.3     1  UNL1        0.0067
     18 C          66.5859   94.5141   10.0713 C.3     1  UNL1        0.0322
     19 C          67.4441   94.3602    8.8507 C.3     1  UNL1        0.1422
     20 O          68.2860   93.1311    8.6759 O.3     1  UNL1       -0.3538
     21 C          68.2697   92.0559    9.7216 C.3     1  UNL1        0.1422
     22 C          67.4115   92.2098   10.9422 C.3     1  UNL1        0.0322
     23 C          62.3858   85.1395   12.7993 C.3     1  UNL1        0.1391
     24 C          62.8548   83.9514   12.0128 C.ar    1  UNL1        0.0054
     25 C          63.6576   84.1499   10.7614 C.ar    1  UNL1       -0.0019
     26 C          64.1267   82.9618    9.9749 C.ar    1  UNL1        0.0006
     27 C          63.7929   81.5753   10.4399 C.ar    1  UNL1        0.0114
     28 C          62.9901   81.3768   11.6913 C.ar    1  UNL1        0.0574
     29 CL         62.6564   79.9903   12.1563 Cl      1  UNL1       -0.0823
     30 C          62.5210   82.5649   12.4778 C.ar    1  UNL1        0.0095
     31 O          61.8038   84.9500   14.1688 O.3     1  UNL1       -0.3500
     32 C          62.5924   84.2368   15.2268 C.3     1  UNL1        0.1638
     33 C          63.9056   84.7960   15.6881 C.3     1  UNL1        0.1247
     34 N          64.0104   86.2409   16.0771 N.am    1  UNL1       -0.2681
     35 C          63.0579   86.8182   17.0818 C.2     1  UNL1        0.4018
     36 O          62.0006   85.9505   17.6976 O.2     1  UNL1       -0.2264
     37 H          64.7044   86.8104   15.6729 H       1  UNL1        0.1528
     38 O          63.1627   88.2631   17.4707 O.3     1  UNL1       -0.4306
     39 C          62.8156   89.3338   16.4792 C.3     1  UNL1        0.2573
@<TRIPOS>BOND
     1    13    14    1
     2    14    12    1
     3    11    12    1
     4    11    16    1
     5    16    17    1
     6    17    18    1
     7    18    19    1
     8    19    20    1
     9    20    21    1
    10    21    22    1
    11    11     1    1
    12     1     2   am
    13     2     3    2
    14     2     4   am
    15     4     5    1
    16     5     6    1
    17     6     7    1
    18     8     7    1
    19     8    23    1
    20    23    31    1
    21    31    32    1
    22    32    33    1
    23    33    34    1
    24    34    35   am
    25    35    36    2
    26    35    38    1
    27    38    39    1
    28    23    24    1
    29    24    25   ar
    30    25    26   ar
    31    26    27   ar
    32    27    28   ar
    33    28    29    1
    34    28    30   ar
    35     8     9    1
    36    22    17    1
    37     9     4    1
    38    30    24   ar
    39    14    15    1
    40     1    10    1
    41    34    37    1
@<TRIPOS>MOLECULE
*****
 39 41 0 0 0
SMALL
GASTEIGER

@<TRIPOS>ATOM
      1 N          65.4025   91.1810   13.9723 N.am    1  UNL1       -0.2890
      2 C          64.5783   90.3493   13.0347 C.2     1  UNL1        0.3040
      3 O          64.0932   90.9349   11.7417 O.2     1  UNL1       -0.2526
      4 N          64.2393   88.9320   13.3900 N.am    1  UNL1       -0.2641
      5 C          64.7245   88.3464   14.6830 C.3     1  UNL1        0.0949
      6 C          64.3855   86.9291   15.0384 C.3     1  UNL1        0.0217
      7 C          63.5613   86.0974   14.1008 C.3     1  UNL1        0.0062
      8 C          63.0761   86.6830   12.8079 C.3     1  UNL1        0.0514
      9 C          63.4152   88.1003   12.4525 C.3     1  UNL1        0.0977
     10 H          65.7209   90.7967   14.8209 H       1  UNL1        0.1510
     11 C          65.7415   92.5983   13.6169 C.3     1  UNL1        0.0887
     12 C          66.4939   93.4563   14.5906 C.3     1  UNL1        0.0884
     13 C          68.4295   92.5609   16.0743 C.3     1  UNL1        0.0859
     14 N          66.9747   92.8747   15.8869 N.3     1  UNL1       -0.2949
     15 H          66.7197   93.5371   16.6194 H       1  UNL1        0.1233
     16 C          65.3282   93.1577   12.2879 C.3     1  UNL1        0.0212
     17 C          66.3666   93.4835   11.2555 C.3     1  UNL1        0.0067
     18 C          66.4955   94.8853   10.7377 C.3     1  UNL1        0.0322
     19 C          67.5338   95.2110    9.7054 C.3     1  UNL1        0.1422
     20 O          68.4433   94.1348    9.1909 O.3     1  UNL1       -0.3538
     21 C          68.3144   92.7330    9.7087 C.3     1  UNL1        0.1422
     22 C          67.2761   92.4073   10.7410 C.3     1  UNL1        0.0322
     23 C          62.2520   85.8513   11.8704 C.3     1  UNL1        0.1391
     24 C          62.7012   84.4683   11.5024 C.ar    1  UNL1        0.0054
     25 C          63.4875   84.2449   10.2447 C.ar    1  UNL1       -0.0019
     26 C          63.9367   82.8618    9.8767 C.ar    1  UNL1        0.0006
     27 C          63.5997   81.7022   10.7665 C.ar    1  UNL1        0.0114
     28 C          62.8135   81.9256   12.0243 C.ar    1  UNL1        0.0574
     29 CL         62.4765   80.7660   12.9140 Cl      1  UNL1       -0.0823
     30 C          62.3642   83.3086   12.3922 C.ar    1  UNL1        0.0095
     31 O          60.9785   86.4026   11.3008 O.3     1  UNL1       -0.3500
     32 C          61.0078   87.1963   10.0283 C.3     1  UNL1        0.1638
     33 C          60.2698   88.4992    9.9400 C.3     1  UNL1        0.1247
     34 N          60.3459   89.3209    8.6873 N.am    1  UNL1       -0.2681
     35 C          59.5410   88.9296    7.4836 C.2     1  UNL1        0.4018
     36 O          58.6598   87.7166    7.5326 O.2     1  UNL1       -0.2264
     37 H          60.9243   90.1170    8.6551 H       1  UNL1        0.1528
     38 O          59.6171   89.7512    6.2309 O.3     1  UNL1       -0.4306
     39 C          58.4264   90.5449    5.7811 C.3     1  UNL1        0.2573
@<TRIPOS>BOND
     1    13    14    1
     2    14    12    1
     3    11    12    1
     4    11    16    1
     5    16    17    1
     6    17    18    1
     7    18    19    1
     8    19    20    1
     9    20    21    1
    10    21    22    1
    11    11     1    1
    12     1     2   am
    13     2     3    2
    14     2     4   am
    15     4     5    1
    16     5     6    1
    17     6     7    1
    18     8     7    1
    19     8    23    1
    20    23    31    1
    21    31    32    1
    22    32    33    1
    23    33    34    1
    24    34    35   am
    25    35    36    2
    26    35    38    1
    27    38    39    1
    28    23    24    1
    29    24    25   ar
    30    25    26   ar
    31    26    27   ar
    32    27    28   ar
    33    28    29    1
    34    28    30   ar
    35     8     9    1
    36    22    17    1
    37     9     4    1
    38    30    24   ar
    39    14    15    1
    40     1    10    1
    41    34    37    1
@<TRIPOS>MOLECULE
*****
 39 41 0 0 0
SMALL
GASTEIGER

@<TRIPOS>ATOM
      1 N          64.6513   89.4723   14.8938 N.am    1  UNL1       -0.2890
      2 C          63.8832   88.6548   13.8979 C.2     1  UNL1        0.3040
      3 O          62.9676   89.3299   12.9202 O.2     1  UNL1       -0.2526
      4 N          64.0307   87.1622   13.8798 N.am    1  UNL1       -0.2641
      5 C          64.9464   86.4871   14.8575 C.3     1  UNL1        0.0949
      6 C          65.0939   84.9945   14.8394 C.3     1  UNL1        0.0217
      7 C          64.3258   84.1769   13.8435 C.3     1  UNL1        0.0062
      8 C          63.4102   84.8520   12.8658 C.3     1  UNL1        0.0514
      9 C          63.2626   86.3446   12.8840 C.3     1  UNL1        0.0977
     10 H          65.2523   89.0293   15.5355 H       1  UNL1        0.1510
     11 C          64.5038   90.9650   14.9119 C.3     1  UNL1        0.0887
     12 C          64.4941   91.7018   16.2184 C.3     1  UNL1        0.0884
     13 C          66.8611   92.7648   16.3493 C.3     1  UNL1        0.0859
     14 N          65.3689   92.9056   16.4071 N.3     1  UNL1       -0.2949
     15 H          65.1081   93.5754   15.6833 H       1  UNL1        0.1233
     16 C          64.3659   91.7207   13.6236 C.3     1  UNL1        0.0212
     17 C          65.5689   91.9536   12.7582 C.3     1  UNL1        0.0067
     18 C          66.9429   91.6814   13.2949 C.3     1  UNL1        0.0322
     19 C          68.1457   91.9143   12.4296 C.3     1  UNL1        0.1422
     20 O          67.9746   92.4195   11.0276 O.3     1  UNL1       -0.3538
     21 C          66.6007   92.6917   10.4909 C.3     1  UNL1        0.1422
     22 C          65.3978   92.4587   11.3562 C.3     1  UNL1        0.0322
     23 C          62.6421   84.0345   11.8700 C.3     1  UNL1        0.1391
     24 C          62.6180   82.5392   11.9865 C.ar    1  UNL1        0.0054
     25 C          62.3314   81.8945   13.3102 C.ar    1  UNL1       -0.0019
     26 C          62.3073   80.3993   13.4266 C.ar    1  UNL1        0.0006
     27 C          62.5699   79.5487   12.2193 C.ar    1  UNL1        0.0114
     28 C          62.8565   80.1933   10.8956 C.ar    1  UNL1        0.0574
     29 CL         63.1190   79.3427    9.6883 Cl      1  UNL1       -0.0823
     30 C          62.8806   81.6886   10.7791 C.ar    1  UNL1        0.0095
     31 O          61.8981   84.7122   10.7577 O.3     1  UNL1       -0.3500
     32 C          62.6532   85.3447    9.6265 C.3     1  UNL1        0.1638
     33 C          62.2014   86.6607    9.0662 C.3     1  UNL1        0.1247
     34 N          62.0191   87.8399    9.9752 N.am    1  UNL1       -0.2681
     35 C          60.9993   88.8896    9.6464 C.2     1  UNL1        0.4018
     36 O          60.1618   88.7602    8.4087 O.2     1  UNL1       -0.2264
     37 H          62.5687   87.9249   10.7875 H       1  UNL1        0.1528
     38 O          60.8169   90.0689   10.5554 O.3     1  UNL1       -0.4306
     39 C          59.7024   90.0768   11.5593 C.3     1  UNL1        0.2573
@<TRIPOS>BOND
     1    13    14    1
     2    14    12    1
     3    11    12    1
     4    11    16    1
     5    16    17    1
     6    17    18    1
     7    18    19    1
     8    19    20    1
     9    20    21    1
    10    21    22    1
    11    11     1    1
    12     1     2   am
    13     2     3    2
    14     2     4   am
    15     4     5    1
    16     5     6    1
    17     6     7    1
    18     8     7    1
    19     8    23    1
    20    23    31    1
    21    31    32    1
    22    32    33    1
    23    33    34    1
    24    34    35   am
    25    35    36    2
    26    35    38    1
    27    38    39    1
    28    23    24    1
    29    24    25   ar
    30    25    26   ar
    31    26    27   ar
    32    27    28   ar
    33    28    29    1
    34    28    30   ar
    35     8     9    1
    36    22    17    1
    37     9     4    1
    38    30    24   ar
    39    14    15    1
    40     1    10    1
    41    34    37    1
@<TRIPOS>MOLECULE
*****
 39 41 0 0 0
SMALL
GASTEIGER

@<TRIPOS>ATOM
      1 N          64.5965   89.3949   14.5642 N.am    1  UNL1       -0.2890
      2 C          63.9569   88.4817   13.5606 C.2     1  UNL1        0.3040
      3 O          63.2848   89.0535   12.3477 O.2     1  UNL1       -0.2526
      4 N          63.9894   86.9968   13.7701 N.am    1  UNL1       -0.2641
      5 C          64.6615   86.4250   14.9832 C.3     1  UNL1        0.0949
      6 C          64.6939   84.9401   15.1927 C.3     1  UNL1        0.0217
      7 C          64.0544   84.0269   14.1891 C.3     1  UNL1        0.0062
      8 C          63.3823   84.5987   12.9761 C.3     1  UNL1        0.0514
      9 C          63.3498   86.0836   12.7666 C.3     1  UNL1        0.0977
     10 H          65.0376   89.0196   15.3604 H       1  UNL1        0.1510
     11 C          64.5640   90.8799   14.3548 C.3     1  UNL1        0.0887
     12 C          63.8389   91.4551   13.1743 C.3     1  UNL1        0.0884
     13 C          63.8644   91.7977   10.5991 C.3     1  UNL1        0.0859
     14 N          64.5882   91.7658   11.9125 N.3     1  UNL1       -0.2949
     15 H          65.0092   92.6862   12.0391 H       1  UNL1        0.1233
     16 C          65.2565   91.7896   15.3257 C.3     1  UNL1        0.0212
     17 C          66.6889   92.1745   15.1021 C.3     1  UNL1        0.0067
     18 C          67.4414   91.6165   13.9306 C.3     1  UNL1        0.0322
     19 C          68.8738   92.0015   13.7071 C.3     1  UNL1        0.1422
     20 O          69.5537   92.9445   14.6549 O.3     1  UNL1       -0.3538
     21 C          68.8012   93.5025   15.8264 C.3     1  UNL1        0.1422
     22 C          67.3688   93.1175   16.0500 C.3     1  UNL1        0.0322
     23 C          62.7428   83.6855   11.9726 C.3     1  UNL1        0.1391
     24 C          62.5835   82.2262   12.2809 C.ar    1  UNL1        0.0054
     25 C          62.1719   81.7908   13.6560 C.ar    1  UNL1       -0.0019
     26 C          62.0127   80.3315   13.9643 C.ar    1  UNL1        0.0006
     27 C          62.2650   79.3076   12.8976 C.ar    1  UNL1        0.0114
     28 C          62.6766   79.7431   11.5224 C.ar    1  UNL1        0.0574
     29 CL         62.9289   78.7192   10.4556 Cl      1  UNL1       -0.0823
     30 C          62.8359   81.2024   11.2140 C.ar    1  UNL1        0.0095
     31 O          62.2625   84.2317   10.6606 O.3     1  UNL1       -0.3500
     32 C          63.2399   84.4891    9.5524 C.3     1  UNL1        0.1638
     33 C          62.8777   85.4212    8.4344 C.3     1  UNL1        0.1247
     34 N          61.8734   86.5118    8.6627 N.am    1  UNL1       -0.2681
     35 C          60.5242   86.4372    8.0115 C.2     1  UNL1        0.4018
     36 O          60.1792   85.2721    7.1321 O.2     1  UNL1       -0.2264
     37 H          62.0999   87.2765    9.2399 H       1  UNL1        0.1528
     38 O          59.5199   87.5278    8.2399 O.3     1  UNL1       -0.4306
     39 C          59.9821   88.9140    8.5786 C.3     1  UNL1        0.2573
@<TRIPOS>BOND
     1    13    14    1
     2    14    12    1
     3    11    12    1
     4    11    16    1
     5    16    17    1
     6    17    18    1
     7    18    19    1
     8    19    20    1
     9    20    21    1
    10    21    22    1
    11    11     1    1
    12     1     2   am
    13     2     3    2
    14     2     4   am
    15     4     5    1
    16     5     6    1
    17     6     7    1
    18     8     7    1
    19     8    23    1
    20    23    31    1
    21    31    32    1
    22    32    33    1
    23    33    34    1
    24    34    35   am
    25    35    36    2
    26    35    38    1
    27    38    39    1
    28    23    24    1
    29    24    25   ar
    30    25    26   ar
    31    26    27   ar
    32    27    28   ar
    33    28    29    1
    34    28    30   ar
    35     8     9    1
    36    22    17    1
    37     9     4    1
    38    30    24   ar
    39    14    15    1
    40     1    10    1
    41    34    37    1
@<TRIPOS>MOLECULE
*****
 39 41 0 0 0
SMALL
GASTEIGER

@<TRIPOS>ATOM
      1 N          65.3897   90.2156   14.8647 N.am    1  UNL1       -0.2890
      2 C          64.5997   89.7186   13.6904 C.2     1  UNL1        0.3040
      3 O          64.2173   90.6632   12.5898 O.2     1  UNL1       -0.2526
      4 N          64.1922   88.2769   13.6168 N.am    1  UNL1       -0.2641
      5 C          64.5746   87.3322   14.7174 C.3     1  UNL1        0.0949
      6 C          64.1671   85.8905   14.6438 C.3     1  UNL1        0.0217
      7 C          63.3771   85.3935   13.4695 C.3     1  UNL1        0.0062
      8 C          62.9947   86.3381   12.3689 C.3     1  UNL1        0.0514
      9 C          63.4022   87.7798   12.4425 C.3     1  UNL1        0.0977
     10 H          65.6407   89.5956   15.5871 H       1  UNL1        0.1510
     11 C          65.7973   91.6573   14.9384 C.3     1  UNL1        0.0887
     12 C          64.9739   92.6300   15.7295 C.3     1  UNL1        0.0884
     13 C          63.3946   90.8175   16.7147 C.3     1  UNL1        0.0859
     14 N          64.0944   92.1383   16.8407 N.3     1  UNL1       -0.2949
     15 H          64.6776   92.0840   17.6758 H       1  UNL1        0.1233
     16 C          67.0282   92.1263   14.2208 C.3     1  UNL1        0.0212
     17 C          66.9262   92.6454   12.8172 C.3     1  UNL1        0.0067
     18 C          67.6344   91.9355   11.7017 C.3     1  UNL1        0.0322
     19 C          67.5324   92.4547   10.2981 C.3     1  UNL1        0.1422
     20 O          66.7221   93.6836   10.0100 O.3     1  UNL1       -0.3538
     21 C          66.0138   94.3935   11.1255 C.3     1  UNL1        0.1422
     22 C          66.1159   93.8744   12.5291 C.3     1  UNL1        0.0322
     23 C          62.2047   85.8411   11.1947 C.3     1  UNL1        0.1391
     24 C          61.3957   86.8015   10.3743 C.ar    1  UNL1        0.0054
     25 C          60.9701   86.4280    8.9853 C.ar    1  UNL1       -0.0019
     26 C          60.1610   87.3885    8.1650 C.ar    1  UNL1        0.0006
     27 C          59.7775   88.7224    8.7337 C.ar    1  UNL1        0.0114
     28 C          60.2031   89.0960   10.1227 C.ar    1  UNL1        0.0574
     29 CL         59.8196   90.4300   10.6914 Cl      1  UNL1       -0.0823
     30 C          61.0121   88.1356   10.9431 C.ar    1  UNL1        0.0095
     31 O          62.2238   84.3835   10.8407 O.3     1  UNL1       -0.3500
     32 C          63.4332   83.7870   10.1838 C.3     1  UNL1        0.1638
     33 C          63.9157   82.4274   10.5943 C.3     1  UNL1        0.1247
     34 N          62.9880   81.4842   11.3014 N.am    1  UNL1       -0.2681
     35 C          63.1033   81.2895   12.7842 C.2     1  UNL1        0.4018
     36 O          64.1462   82.0381   13.5601 O.2     1  UNL1       -0.2264
     37 H          62.3035   80.9929   10.7921 H       1  UNL1        0.1528
     38 O          62.1756   80.3463   13.4912 O.3     1  UNL1       -0.4306
     39 C          60.9239   80.8663   14.1338 C.3     1  UNL1        0.2573
@<TRIPOS>BOND
     1    13    14    1
     2    14    12    1
     3    11    12    1
     4    11    16    1
     5    16    17    1
     6    17    18    1
     7    18    19    1
     8    19    20    1
     9    20    21    1
    10    21    22    1
    11    11     1    1
    12     1     2   am
    13     2     3    2
    14     2     4   am
    15     4     5    1
    16     5     6    1
    17     6     7    1
    18     8     7    1
    19     8    23    1
    20    23    31    1
    21    31    32    1
    22    32    33    1
    23    33    34    1
    24    34    35   am
    25    35    36    2
    26    35    38    1
    27    38    39    1
    28    23    24    1
    29    24    25   ar
    30    25    26   ar
    31    26    27   ar
    32    27    28   ar
    33    28    29    1
    34    28    30   ar
    35     8     9    1
    36    22    17    1
    37     9     4    1
    38    30    24   ar
    39    14    15    1
    40     1    10    1
    41    34    37    1
@<TRIPOS>MOLECULE
*****
 39 41 0 0 0
SMALL
GASTEIGER

@<TRIPOS>ATOM
      1 N          63.1034   85.0000   15.0846 N.am    1  UNL1       -0.2890
      2 C          63.6724   86.1980   14.3837 C.2     1  UNL1        0.3040
      3 O          64.2454   86.0581   13.0045 O.2     1  UNL1       -0.2526
      4 N          63.6684   87.5358   15.0620 N.am    1  UNL1       -0.2641
      5 C          63.0954   87.6757   16.4412 C.3     1  UNL1        0.0949
      6 C          63.0914   89.0135   17.1195 C.3     1  UNL1        0.0217
      7 C          63.6603   90.2115   16.4186 C.3     1  UNL1        0.0062
      8 C          64.2333   90.0716   15.0395 C.3     1  UNL1        0.0514
      9 C          64.2373   88.7338   14.3612 C.3     1  UNL1        0.0977
     10 H          62.7274   85.0918   15.9898 H       1  UNL1        0.1510
     11 C          63.1075   83.6621   14.4062 C.3     1  UNL1        0.0887
     12 C          64.0220   82.5772   14.8929 C.3     1  UNL1        0.0884
     13 C          62.6865   80.5469   13.9741 C.3     1  UNL1        0.0859
     14 N          63.9968   81.2266   14.2410 N.3     1  UNL1       -0.2949
     15 H          64.4660   81.3254   13.3407 H       1  UNL1        0.1233
     16 C          62.1971   83.4091   13.2413 C.3     1  UNL1        0.0212
     17 C          62.6154   83.8178   11.8599 C.3     1  UNL1        0.0067
     18 C          63.6458   83.0168   11.1205 C.3     1  UNL1        0.0322
     19 C          64.0640   83.4255    9.7393 C.3     1  UNL1        0.1422
     20 O          63.4519   84.6351    9.0973 O.3     1  UNL1       -0.3538
     21 C          62.4215   85.4361    9.8367 C.3     1  UNL1        0.1422
     22 C          62.0032   85.0274   11.2180 C.3     1  UNL1        0.0322
     23 C          64.8022   91.2696   14.3387 C.3     1  UNL1        0.1391
     24 C          66.1408   91.8107   14.7452 C.ar    1  UNL1        0.0054
     25 C          66.2774   92.5985   16.0143 C.ar    1  UNL1       -0.0019
     26 C          67.6160   93.1397   16.4208 C.ar    1  UNL1        0.0006
     27 C          68.8181   92.8931   15.5582 C.ar    1  UNL1        0.0114
     28 C          68.6816   92.1053   14.2890 C.ar    1  UNL1        0.0574
     29 CL         69.8836   91.8587   13.4263 Cl      1  UNL1       -0.0823
     30 C          67.3429   91.5641   13.8825 C.ar    1  UNL1        0.0095
     31 O          64.0325   91.9264   13.2313 O.3     1  UNL1       -0.3500
     32 C          63.9454   91.2689   11.8859 C.3     1  UNL1        0.1638
     33 C          62.6060   90.9262   11.3040 C.3     1  UNL1        0.1247
     34 N          61.8017   89.8010   11.8847 N.am    1  UNL1       -0.2681
     35 C          60.3312   89.7076   11.6041 C.2     1  UNL1        0.4018
     36 O          59.6649   90.7392   10.7429 O.2     1  UNL1       -0.2264
     37 H          62.2390   89.1239   12.4499 H       1  UNL1        0.1528
     38 O          59.5269   88.5824   12.1848 O.3     1  UNL1       -0.4306
     39 C          58.3017   88.8780   12.9981 C.3     1  UNL1        0.2573
@<TRIPOS>BOND
     1    13    14    1
     2    14    12    1
     3    11    12    1
     4    11    16    1
     5    16    17    1
     6    17    18    1
     7    18    19    1
     8    19    20    1
     9    20    21    1
    10    21    22    1
    11    11     1    1
    12     1     2   am
    13     2     3    2
    14     2     4   am
    15     4     5    1
    16     5     6    1
    17     6     7    1
    18     8     7    1
    19     8    23    1
    20    23    31    1
    21    31    32    1
    22    32    33    1
    23    33    34    1
    24    34    35   am
    25    35    36    2
    26    35    38    1
    27    38    39    1
    28    23    24    1
    29    24    25   ar
    30    25    26   ar
    31    26    27   ar
    32    27    28   ar
    33    28    29    1
    34    28    30   ar
    35     8     9    1
    36    22    17    1
    37     9     4    1
    38    30    24   ar
    39    14    15    1
    40     1    10    1
    41    34    37    1
