@<TRIPOS>MOLECULE
*****
 37 40 0 0 0
SMALL
GASTEIGER

@<TRIPOS>ATOM
      1 C          62.6225   88.6541   11.4718 C.3     1  UNL1        0.0468
      2 C          61.7621   89.8786   10.0000 C.3     1  UNL1        0.0069
      3 C          63.1486   88.7537   12.2737 C.3     1  UNL1        0.0500
      4 C          63.5233   88.1473   12.9231 C.3     1  UNL1        0.1694
      5 C          63.8811   86.9911   13.6097 C.3     1  UNL1        0.0435
      6 C          64.6395   86.5645   14.8315 C.3     1  UNL1        0.0040
      7 C          63.4340   87.0136   12.9157 C.3     1  UNL1        0.0038
      8 C          63.9685   89.5007   13.4554 C.3     1  UNL1        0.0001
      9 C          62.9704   87.0467   12.1950 C.3     1  UNL1        0.0001
     10 C          62.7368   86.3988   11.9084 C.3     1  UNL1        0.0005
     11 C          62.4885   85.6735   11.6080 C.3     1  UNL1        0.0093
     12 C          62.2414   84.2095   11.3947 C.3     1  UNL1        0.0082
     13 C          62.9070   83.4597   12.5104 C.3     1  UNL1        0.0645
     14 C          63.5655   84.4604   13.4133 C.2     1  UNL1        0.1504
     15 O          64.3456   84.1477   14.6557 O.2     1  UNL1       -0.2961
     16 C          63.3068   85.8286   12.8556 C.3     1  UNL1        0.0610
     17 C          62.2573   86.9496   11.1034 C.3     1  UNL1        0.0276
     18 C          61.1518   85.9037    9.5146 C.3     1  UNL1        0.0025
     19 C          62.2533   87.9067   10.9870 C.3     1  UNL1        0.1141
     20 O          61.1411   88.5324    9.1949 O.3     1  UNL1       -0.3841
     21 H          61.1651   89.4992    9.1206 H       1  UNL1        0.2103
     22 C          63.7036   91.6776   10.7400 C.2     1  UNL1       -0.0048
     23 C          62.6797   90.7467   11.3189 C.2     1  UNL1       -0.0243
     24 O          64.6287   89.1932   14.5119 O.3     1  UNL1       -0.4516
     25 C          64.7740   90.6855   14.4671 C.2     1  UNL1        0.3283
     26 O          63.6681   91.5622   14.9754 O.2     1  UNL1       -0.2491
     27 C          66.0250   91.3010   13.9141 C.3     1  UNL1        0.1715
     28 S          66.0853   92.7782   13.6605 S.3     1  UNL1       -0.1003
     29 C          66.5010   93.2917   12.3138 C.ar    1  UNL1        0.0461
     30 C          66.1657   94.6971   11.9108 C.ar    1  UNL1        0.1051
     31 N          66.5814   95.2105   10.5640 N.ar    1  UNL1       -0.2405
     32 C          67.3324   94.3185    9.6204 C.ar    1  UNL1        0.1129
     33 C          67.6677   92.9131   10.0234 C.ar    1  UNL1        0.0615
     34 N          68.4187   92.0212    9.0798 N.pl3   1  UNL1       -0.3558
     35 C          67.2520   92.3997   11.3702 C.ar    1  UNL1        0.0234
     36 H          68.6916   92.3581    8.1959 H       1  UNL1        0.1424
     37 H          68.6388   91.0988    9.3444 H       1  UNL1        0.1424
@<TRIPOS>BOND
     1    22    23    2
     2    23     1    1
     3     1     2    1
     4     1     3    1
     5     3     4    1
     6     4    24    1
     7    24    25    1
     8    25    26    2
     9    25    27    1
    10    27    28    1
    11    28    29    1
    12    29    30   ar
    13    30    31   ar
    14    31    32   ar
    15    32    33   ar
    16    33    34    1
    17    33    35   ar
    18     4     5    1
    19     5     6    1
    20     5     7    1
    21     7     8    1
    22     7     9    1
    23     9    10    1
    24    11    10    1
    25    11    12    1
    26    12    13    1
    27    13    14    1
    28    14    15    2
    29    16    14    1
    30    11    17    1
    31    17    18    1
    32    17    19    1
    33    19    20    1
    34    19     1    1
    35    35    29   ar
    36    16     5    1
    37    16    11    1
    38    34    36    1
    39    34    37    1
    40    20    21    1
@<TRIPOS>MOLECULE
*****
 37 40 0 0 0
SMALL
GASTEIGER

@<TRIPOS>ATOM
      1 C          62.6527   88.5647   11.5191 C.3     1  UNL1        0.0468
      2 C          61.8037   89.7831   10.0357 C.3     1  UNL1        0.0069
      3 C          63.1676   88.6680   12.3277 C.3     1  UNL1        0.0500
      4 C          63.5378   88.0643   12.9823 C.3     1  UNL1        0.1694
      5 C          63.8939   86.9107   13.6740 C.3     1  UNL1        0.0435
      6 C          64.6390   86.4894   14.9058 C.3     1  UNL1        0.0040
      7 C          63.4558   86.9300   12.9743 C.3     1  UNL1        0.0038
      8 C          63.9673   89.4207   13.5197 C.3     1  UNL1        0.0001
      9 C          63.0014   86.9599   12.2476 C.3     1  UNL1        0.0001
     10 C          62.7756   86.3104   11.9583 C.3     1  UNL1        0.0005
     11 C          62.5358   85.5834   11.6551 C.3     1  UNL1        0.0093
     12 C          62.3008   84.1177   11.4393 C.3     1  UNL1        0.0082
     13 C          62.9566   83.3727   12.5639 C.3     1  UNL1        0.0645
     14 C          63.5969   84.3779   13.4748 C.2     1  UNL1        0.1504
     15 O          64.3628   84.0706   14.7274 O.2     1  UNL1       -0.2961
     16 C          63.3369   85.7442   12.9131 C.3     1  UNL1        0.0610
     17 C          62.3031   86.8578   11.1469 C.3     1  UNL1        0.0276
     18 C          61.2251   85.8042    9.5443 C.3     1  UNL1        0.0025
     19 C          62.2946   87.8148   11.0299 C.3     1  UNL1        0.1141
     20 O          61.2018   88.4327    9.2233 O.3     1  UNL1       -0.3841
     21 H          61.2206   89.3996    9.1488 H       1  UNL1        0.2103
     22 C          63.6942   91.5913   10.7440 C.2     1  UNL1       -0.0048
     23 C          62.6985   90.6576   11.3660 C.2     1  UNL1       -0.0243
     24 O          64.6157   89.1178   14.5848 O.3     1  UNL1       -0.4516
     25 C          64.7478   90.6114   14.5437 C.2     1  UNL1        0.3283
     26 O          63.5534   91.4776   14.8142 O.2     1  UNL1       -0.2491
     27 C          66.0741   91.2388   14.2323 C.3     1  UNL1        0.1715
     28 S          66.1386   92.6609   13.7595 S.3     1  UNL1       -0.1003
     29 C          66.6136   92.9687   12.3704 C.ar    1  UNL1        0.0461
     30 C          67.6766   92.1215   11.7363 C.ar    1  UNL1        0.1051
     31 N          68.1516   92.4293   10.3471 N.ar    1  UNL1       -0.2405
     32 C          67.5635   93.5844    9.5922 C.ar    1  UNL1        0.1129
     33 C          66.5005   94.4316   10.2263 C.ar    1  UNL1        0.0615
     34 N          65.9124   95.5867    9.4713 N.pl3   1  UNL1       -0.3558
     35 C          66.0255   94.1238   11.6154 C.ar    1  UNL1        0.0234
     36 H          66.2241   95.7888    8.5596 H       1  UNL1        0.1424
     37 H          65.2147   96.1428    9.8875 H       1  UNL1        0.1424
@<TRIPOS>BOND
     1    22    23    2
     2    23     1    1
     3     1     2    1
     4     1     3    1
     5     3     4    1
     6     4    24    1
     7    24    25    1
     8    25    26    2
     9    25    27    1
    10    27    28    1
    11    28    29    1
    12    29    30   ar
    13    30    31   ar
    14    31    32   ar
    15    32    33   ar
    16    33    34    1
    17    33    35   ar
    18     4     5    1
    19     5     6    1
    20     5     7    1
    21     7     8    1
    22     7     9    1
    23     9    10    1
    24    11    10    1
    25    11    12    1
    26    12    13    1
    27    13    14    1
    28    14    15    2
    29    16    14    1
    30    11    17    1
    31    17    18    1
    32    17    19    1
    33    19    20    1
    34    19     1    1
    35    35    29   ar
    36    16     5    1
    37    16    11    1
    38    34    36    1
    39    34    37    1
    40    20    21    1
@<TRIPOS>MOLECULE
*****
 37 40 0 0 0
SMALL
GASTEIGER

@<TRIPOS>ATOM
      1 C          63.3626   87.1564   12.8653 C.3     1  UNL1        0.0468
      2 C          64.2609   85.8903   14.2781 C.3     1  UNL1        0.0069
      3 C          63.2462   88.1021   12.7174 C.3     1  UNL1        0.0500
      4 C          62.8177   88.6387   12.0405 C.3     1  UNL1        0.1694
      5 C          62.1142   89.0343   10.9070 C.3     1  UNL1        0.0435
      6 C          61.6554   90.2822   10.2126 C.3     1  UNL1        0.0040
      7 C          62.2678   88.2522   11.1231 C.3     1  UNL1        0.0038
      8 C          63.3664   89.6958   12.9863 C.3     1  UNL1        0.0001
      9 C          62.4321   87.4433   11.3554 C.3     1  UNL1        0.0001
     10 C          62.1760   86.9010   10.9117 C.3     1  UNL1        0.0005
     11 C          61.8850   86.3174   10.4091 C.3     1  UNL1        0.0093
     12 C          61.2169   85.5863    9.2825 C.3     1  UNL1        0.0082
     13 C          60.6228   86.6057    8.3563 C.3     1  UNL1        0.0645
     14 C          60.9237   87.9667    8.9104 C.2     1  UNL1        0.1504
     15 O          60.5161   89.2761    8.3025 O.2     1  UNL1       -0.2961
     16 C          61.7039   87.7885   10.1791 C.3     1  UNL1        0.0610
     17 C          62.6094   86.1688   11.5879 C.3     1  UNL1        0.0276
     18 C          62.4275   84.0122   11.1927 C.3     1  UNL1        0.0025
     19 C          63.0989   86.3556   12.3974 C.3     1  UNL1        0.1141
     20 O          63.7717   84.5252   13.4158 O.3     1  UNL1       -0.3841
     21 H          64.2572   84.7632   14.2212 H       1  UNL1        0.2103
     22 C          63.9534   88.2602   15.9114 C.2     1  UNL1       -0.0048
     23 C          64.4118   87.6805   14.6061 C.2     1  UNL1       -0.0243
     24 O          62.9996   90.7953   12.4357 O.3     1  UNL1       -0.4516
     25 C          64.0044   91.2931   13.4319 C.2     1  UNL1        0.3283
     26 O          63.5967   91.5244   14.8568 O.2     1  UNL1       -0.2491
     27 C          65.4168   91.5597   13.0033 C.3     1  UNL1        0.1715
     28 S          65.9338   92.9671   12.9576 S.3     1  UNL1       -0.1003
     29 C          66.5145   93.5120   11.6864 C.ar    1  UNL1        0.0461
     30 C          66.2980   94.9500   11.3190 C.ar    1  UNL1        0.1051
     31 N          66.8787   95.4949   10.0477 N.ar    1  UNL1       -0.2405
     32 C          67.6758   94.6017    9.1440 C.ar    1  UNL1        0.1129
     33 C          67.8923   93.1636    9.5115 C.ar    1  UNL1        0.0615
     34 N          68.6895   92.2703    8.6078 N.pl3   1  UNL1       -0.3558
     35 C          67.3117   92.6187   10.7827 C.ar    1  UNL1        0.0234
     36 H          69.0706   92.6279    7.7735 H       1  UNL1        0.1424
     37 H          68.8316   91.3265    8.8490 H       1  UNL1        0.1424
@<TRIPOS>BOND
     1    22    23    2
     2    23     1    1
     3     1     2    1
     4     1     3    1
     5     3     4    1
     6     4    24    1
     7    24    25    1
     8    25    26    2
     9    25    27    1
    10    27    28    1
    11    28    29    1
    12    29    30   ar
    13    30    31   ar
    14    31    32   ar
    15    32    33   ar
    16    33    34    1
    17    33    35   ar
    18     4     5    1
    19     5     6    1
    20     5     7    1
    21     7     8    1
    22     7     9    1
    23     9    10    1
    24    11    10    1
    25    11    12    1
    26    12    13    1
    27    13    14    1
    28    14    15    2
    29    16    14    1
    30    11    17    1
    31    17    18    1
    32    17    19    1
    33    19    20    1
    34    19     1    1
    35    35    29   ar
    36    16     5    1
    37    16    11    1
    38    34    36    1
    39    34    37    1
    40    20    21    1
@<TRIPOS>MOLECULE
*****
 37 40 0 0 0
SMALL
GASTEIGER

@<TRIPOS>ATOM
      1 C          62.6677   88.2804   11.5542 C.3     1  UNL1        0.0468
      2 C          61.8739   89.4735   10.0205 C.3     1  UNL1        0.0069
      3 C          63.1233   88.3989   12.3957 C.3     1  UNL1        0.0500
      4 C          63.4716   87.8063   13.0719 C.3     1  UNL1        0.1694
      5 C          63.8243   86.6634   13.7830 C.3     1  UNL1        0.0435
      6 C          64.5011   86.2642   15.0607 C.3     1  UNL1        0.0040
      7 C          63.4334   86.6697   13.0556 C.3     1  UNL1        0.0038
      8 C          63.8126   89.1751   13.6403 C.3     1  UNL1        0.0001
      9 C          63.0277   86.6862   12.3003 C.3     1  UNL1        0.0001
     10 C          62.8465   86.0301   11.9948 C.3     1  UNL1        0.0005
     11 C          62.6552   85.2962   11.6744 C.3     1  UNL1        0.0093
     12 C          62.4909   83.8238   11.4397 C.3     1  UNL1        0.0082
     13 C          63.0980   83.0983   12.6037 C.3     1  UNL1        0.0645
     14 C          63.6376   84.1222   13.5579 C.2     1  UNL1        0.1504
     15 O          64.3293   83.8377   14.8581 O.2     1  UNL1       -0.2961
     16 C          63.3639   85.4806   12.9835 C.3     1  UNL1        0.0610
     17 C          62.4087   86.5635   11.1551 C.3     1  UNL1        0.0276
     18 C          61.4806   85.4781    9.4814 C.3     1  UNL1        0.0025
     19 C          62.3717   87.5201   11.0403 C.3     1  UNL1        0.1141
     20 O          61.3791   88.1055    9.1662 O.3     1  UNL1       -0.3841
     21 H          61.3662   89.0728    9.0956 H       1  UNL1        0.2103
     22 C          63.7138   91.3619   11.0482 C.2     1  UNL1       -0.0048
     23 C          62.6442   90.3743   11.4098 C.2     1  UNL1       -0.0243
     24 O          64.3996   88.8915   14.7455 O.3     1  UNL1       -0.4516
     25 C          63.5537   89.7313   15.6560 C.2     1  UNL1        0.3283
     26 O          62.1474   89.3142   15.9697 O.2     1  UNL1       -0.2491
     27 C          64.1139   90.9882   16.2528 C.3     1  UNL1        0.1715
     28 S          64.6401   92.0727   15.3600 S.3     1  UNL1       -0.1003
     29 C          66.1196   92.2555   15.1938 C.ar    1  UNL1        0.0461
     30 C          66.9219   92.9050   16.2821 C.ar    1  UNL1        0.1051
     31 N          68.4015   93.0878   16.1159 N.ar    1  UNL1       -0.2405
     32 C          69.0786   92.6211   14.8614 C.ar    1  UNL1        0.1129
     33 C          68.2762   91.9715   13.7731 C.ar    1  UNL1        0.0615
     34 N          68.9533   91.5048   12.5187 N.pl3   1  UNL1       -0.3558
     35 C          66.7967   91.7888   13.9393 C.ar    1  UNL1        0.0234
     36 H          69.9244   91.6247   12.4096 H       1  UNL1        0.1424
     37 H          68.4267   91.0785   11.8044 H       1  UNL1        0.1424
@<TRIPOS>BOND
     1    22    23    2
     2    23     1    1
     3     1     2    1
     4     1     3    1
     5     3     4    1
     6     4    24    1
     7    24    25    1
     8    25    26    2
     9    25    27    1
    10    27    28    1
    11    28    29    1
    12    29    30   ar
    13    30    31   ar
    14    31    32   ar
    15    32    33   ar
    16    33    34    1
    17    33    35   ar
    18     4     5    1
    19     5     6    1
    20     5     7    1
    21     7     8    1
    22     7     9    1
    23     9    10    1
    24    11    10    1
    25    11    12    1
    26    12    13    1
    27    13    14    1
    28    14    15    2
    29    16    14    1
    30    11    17    1
    31    17    18    1
    32    17    19    1
    33    19    20    1
    34    19     1    1
    35    35    29   ar
    36    16     5    1
    37    16    11    1
    38    34    36    1
    39    34    37    1
    40    20    21    1
@<TRIPOS>MOLECULE
*****
 37 40 0 0 0
SMALL
GASTEIGER

@<TRIPOS>ATOM
      1 C          63.4536   86.2174   12.9608 C.3     1  UNL1        0.0468
      2 C          64.2123   84.6340   14.1110 C.3     1  UNL1        0.0069
      3 C          63.4288   87.1809   12.9899 C.3     1  UNL1        0.0500
      4 C          63.0605   87.8709   12.4259 C.3     1  UNL1        0.1694
      5 C          62.4102   88.5327   11.3890 C.3     1  UNL1        0.0435
      6 C          62.0793   89.9248   10.9387 C.3     1  UNL1        0.0040
      7 C          62.4867   87.7133   11.4567 C.3     1  UNL1        0.0038
      8 C          63.6964   88.6794   13.5462 C.3     1  UNL1        0.0001
      9 C          62.5711   86.8635   11.5355 C.3     1  UNL1        0.0001
     10 C          62.2697   86.4388   11.0014 C.3     1  UNL1        0.0005
     11 C          61.9303   85.9876   10.4020 C.3     1  UNL1        0.0093
     12 C          61.2084   85.5426    9.1648 C.3     1  UNL1        0.0082
     13 C          60.7237   86.7664    8.4455 C.3     1  UNL1        0.0645
     14 C          61.1461   87.9677    9.2382 C.2     1  UNL1        0.1504
     15 O          60.8710   89.3991    8.8839 O.2     1  UNL1       -0.2961
     16 C          61.8918   87.4864   10.4474 C.3     1  UNL1        0.0610
     17 C          62.6244   85.5571   11.5288 C.3     1  UNL1        0.0276
     18 C          62.2435   83.5368   10.7453 C.3     1  UNL1        0.0025
     19 C          63.1204   85.5448   12.3555 C.3     1  UNL1        0.1141
     20 O          63.6056   83.5031   13.0160 O.3     1  UNL1       -0.3841
     21 H          64.1026   83.5420   13.8481 H       1  UNL1        0.2103
     22 C          64.0788   86.4389   16.1866 C.2     1  UNL1       -0.0048
     23 C          64.5284   86.3110   14.7613 C.2     1  UNL1       -0.0243
     24 O          63.4414   89.8911   13.2093 O.3     1  UNL1       -0.4516
     25 C          63.5974   90.1060   14.6856 C.2     1  UNL1        0.3283
     26 O          62.4357   89.8699   15.6047 O.2     1  UNL1       -0.2491
     27 C          64.9149   90.5571   15.2428 C.3     1  UNL1        0.1715
     28 S          65.4508   91.9144   14.8958 S.3     1  UNL1       -0.1003
     29 C          66.1813   92.1243   13.6026 C.ar    1  UNL1        0.0461
     30 C          67.6274   91.7427   13.4876 C.ar    1  UNL1        0.1051
     31 N          68.3578   91.9525   12.1943 N.ar    1  UNL1       -0.2405
     32 C          67.6422   92.5441   11.0162 C.ar    1  UNL1        0.1129
     33 C          66.1962   92.9257   11.1312 C.ar    1  UNL1        0.0615
     34 N          65.4805   93.5173    9.9531 N.pl3   1  UNL1       -0.3558
     35 C          65.4657   92.7159   12.4244 C.ar    1  UNL1        0.0234
     36 H          65.9599   93.6550    9.1043 H       1  UNL1        0.1424
     37 H          64.5314   93.7677   10.0286 H       1  UNL1        0.1424
@<TRIPOS>BOND
     1    22    23    2
     2    23     1    1
     3     1     2    1
     4     1     3    1
     5     3     4    1
     6     4    24    1
     7    24    25    1
     8    25    26    2
     9    25    27    1
    10    27    28    1
    11    28    29    1
    12    29    30   ar
    13    30    31   ar
    14    31    32   ar
    15    32    33   ar
    16    33    34    1
    17    33    35   ar
    18     4     5    1
    19     5     6    1
    20     5     7    1
    21     7     8    1
    22     7     9    1
    23     9    10    1
    24    11    10    1
    25    11    12    1
    26    12    13    1
    27    13    14    1
    28    14    15    2
    29    16    14    1
    30    11    17    1
    31    17    18    1
    32    17    19    1
    33    19    20    1
    34    19     1    1
    35    35    29   ar
    36    16     5    1
    37    16    11    1
    38    34    36    1
    39    34    37    1
    40    20    21    1
@<TRIPOS>MOLECULE
*****
 37 40 0 0 0
SMALL
GASTEIGER

@<TRIPOS>ATOM
      1 C          63.3766   90.7578   12.0175 C.3     1  UNL1        0.0468
      2 C          62.5855   90.4384   10.0997 C.3     1  UNL1        0.0069
      3 C          63.2509   90.4230   12.9129 C.3     1  UNL1        0.0500
      4 C          63.6479   90.6078   13.7720 C.3     1  UNL1        0.1694
      5 C          64.4417   91.1450   14.7808 C.3     1  UNL1        0.0435
      6 C          64.6701   91.0186   16.2579 C.3     1  UNL1        0.0040
      7 C          64.4715   91.3627   13.9847 C.3     1  UNL1        0.0038
      8 C          62.6300   89.5312   14.1153 C.3     1  UNL1        0.0001
      9 C          64.4954   91.5822   13.1561 C.3     1  UNL1        0.0001
     10 C          64.9848   92.1083   12.9555 C.3     1  UNL1        0.0005
     11 C          65.5314   92.6903   12.7543 C.3     1  UNL1        0.0093
     12 C          66.6084   93.7334   12.7965 C.3     1  UNL1        0.0082
     13 C          67.0785   93.8571   14.2155 C.3     1  UNL1        0.0645
     14 C          66.2920   92.8904   15.0504 C.2     1  UNL1        0.1504
     15 O          66.4364   92.6816   16.5287 O.2     1  UNL1       -0.2961
     16 C          65.3358   92.1693   14.1472 C.3     1  UNL1        0.0610
     17 C          64.6385   92.0125   11.9297 C.3     1  UNL1        0.0276
     18 C          65.5035   93.2391   10.3212 C.3     1  UNL1        0.0025
     19 C          63.9514   91.4163   11.6102 C.3     1  UNL1        0.1141
     20 O          63.6164   91.6017    9.4438 O.3     1  UNL1       -0.3841
     21 H          62.9194   90.9849    9.1704 H       1  UNL1        0.2103
     22 C          61.9088   87.9653   11.0725 C.2     1  UNL1       -0.0048
     23 C          61.8675   89.4202   11.4349 C.2     1  UNL1       -0.0243
     24 O          62.7829   89.3812   15.3805 O.3     1  UNL1       -0.4516
     25 C          63.3890   88.0513   15.7182 C.2     1  UNL1        0.3283
     26 O          63.0999   87.4101   17.0431 O.2     1  UNL1       -0.2491
     27 C          64.2841   87.3626   14.7312 C.3     1  UNL1        0.1715
     28 S          64.6695   85.9283   14.9417 S.3     1  UNL1       -0.1003
     29 C          64.0202   84.8497   14.1261 C.ar    1  UNL1        0.0461
     30 C          63.2733   85.2030   12.8742 C.ar    1  UNL1        0.1051
     31 N          62.6241   84.1245   12.0585 N.ar    1  UNL1       -0.2405
     32 C          62.7218   82.6927   12.4949 C.ar    1  UNL1        0.1129
     33 C          63.4687   82.3393   13.7468 C.ar    1  UNL1        0.0615
     34 N          63.5664   80.9075   14.1831 N.pl3   1  UNL1       -0.3558
     35 C          64.1179   83.4179   14.5624 C.ar    1  UNL1        0.0234
     36 H          63.1403   80.1996   13.6478 H       1  UNL1        0.1424
     37 H          64.0566   80.6757   15.0048 H       1  UNL1        0.1424
@<TRIPOS>BOND
     1    22    23    2
     2    23     1    1
     3     1     2    1
     4     1     3    1
     5     3     4    1
     6     4    24    1
     7    24    25    1
     8    25    26    2
     9    25    27    1
    10    27    28    1
    11    28    29    1
    12    29    30   ar
    13    30    31   ar
    14    31    32   ar
    15    32    33   ar
    16    33    34    1
    17    33    35   ar
    18     4     5    1
    19     5     6    1
    20     5     7    1
    21     7     8    1
    22     7     9    1
    23     9    10    1
    24    11    10    1
    25    11    12    1
    26    12    13    1
    27    13    14    1
    28    14    15    2
    29    16    14    1
    30    11    17    1
    31    17    18    1
    32    17    19    1
    33    19    20    1
    34    19     1    1
    35    35    29   ar
    36    16     5    1
    37    16    11    1
    38    34    36    1
    39    34    37    1
    40    20    21    1
@<TRIPOS>MOLECULE
*****
 37 40 0 0 0
SMALL
GASTEIGER

@<TRIPOS>ATOM
      1 C          63.2030   86.1485   12.6498 C.3     1  UNL1        0.0468
      2 C          63.2780   84.0761   12.9741 C.3     1  UNL1        0.0069
      3 C          63.5178   86.9552   13.0738 C.3     1  UNL1        0.0500
      4 C          63.4541   87.8975   12.8790 C.3     1  UNL1        0.1694
      5 C          63.1477   89.1103   12.2695 C.3     1  UNL1        0.0435
      6 C          63.3591   90.5828   12.4624 C.3     1  UNL1        0.0040
      7 C          62.9257   88.3665   11.9877 C.3     1  UNL1        0.0038
      8 C          64.2601   87.8917   14.1687 C.3     1  UNL1        0.0001
      9 C          62.6997   87.5899   11.7028 C.3     1  UNL1        0.0001
     10 C          62.3032   87.5590   11.0716 C.3     1  UNL1        0.0005
     11 C          61.8662   87.5462   10.3739 C.3     1  UNL1        0.0093
     12 C          61.1157   87.9361    9.1351 C.3     1  UNL1        0.0082
     13 C          61.1416   89.4321    9.0291 C.3     1  UNL1        0.0645
     14 C          61.9081   89.9668   10.2024 C.2     1  UNL1        0.1504
     15 O          62.1792   91.4131   10.4934 O.2     1  UNL1       -0.2961
     16 C          62.3559   88.8012   11.0335 C.3     1  UNL1        0.0610
     17 C          62.2891   86.4755   11.1558 C.3     1  UNL1        0.0276
     18 C          61.2718   85.2339    9.6511 C.3     1  UNL1        0.0025
     19 C          62.6940   85.9498   11.8553 C.3     1  UNL1        0.1141
     20 O          62.3840   83.7902   11.5723 O.3     1  UNL1       -0.3841
     21 H          62.8075   83.3049   12.2976 H       1  UNL1        0.2103
     22 C          65.5662   84.8761   14.5583 C.2     1  UNL1       -0.0048
     23 C          64.1224   85.1067   14.2231 C.2     1  UNL1       -0.0243
     24 O          64.4713   89.1390   14.3836 O.3     1  UNL1       -0.4516
     25 C          63.8082   89.4158   15.7002 C.2     1  UNL1        0.3283
     26 O          63.0948   88.3144   16.4268 O.2     1  UNL1       -0.2491
     27 C          63.8586   90.7938   16.2903 C.3     1  UNL1        0.1715
     28 S          64.3868   91.9388   15.4779 S.3     1  UNL1       -0.1003
     29 C          65.8666   92.1302   15.3248 C.ar    1  UNL1        0.0461
     30 C          66.6698   92.7018   16.4553 C.ar    1  UNL1        0.1051
     31 N          68.1497   92.8932   16.3022 N.ar    1  UNL1       -0.2405
     32 C          68.8263   92.5128   15.0187 C.ar    1  UNL1        0.1129
     33 C          68.0231   91.9412   13.8881 C.ar    1  UNL1        0.0615
     34 N          68.6997   91.5608   12.6046 N.pl3   1  UNL1       -0.3558
     35 C          66.5432   91.7498   14.0412 C.ar    1  UNL1        0.0234
     36 H          69.6710   91.6864   12.5041 H       1  UNL1        0.1424
     37 H          68.1725   91.1856   11.8626 H       1  UNL1        0.1424
@<TRIPOS>BOND
     1    22    23    2
     2    23     1    1
     3     1     2    1
     4     1     3    1
     5     3     4    1
     6     4    24    1
     7    24    25    1
     8    25    26    2
     9    25    27    1
    10    27    28    1
    11    28    29    1
    12    29    30   ar
    13    30    31   ar
    14    31    32   ar
    15    32    33   ar
    16    33    34    1
    17    33    35   ar
    18     4     5    1
    19     5     6    1
    20     5     7    1
    21     7     8    1
    22     7     9    1
    23     9    10    1
    24    11    10    1
    25    11    12    1
    26    12    13    1
    27    13    14    1
    28    14    15    2
    29    16    14    1
    30    11    17    1
    31    17    18    1
    32    17    19    1
    33    19    20    1
    34    19     1    1
    35    35    29   ar
    36    16     5    1
    37    16    11    1
    38    34    36    1
    39    34    37    1
    40    20    21    1
@<TRIPOS>MOLECULE
*****
 37 40 0 0 0
SMALL
GASTEIGER

@<TRIPOS>ATOM
      1 C          63.3047   87.3176   12.7107 C.3     1  UNL1        0.0468
      2 C          64.3242   86.3421   14.2646 C.3     1  UNL1        0.0069
      3 C          63.0995   88.2198   12.4394 C.3     1  UNL1        0.0500
      4 C          62.6194   88.6183   11.7042 C.3     1  UNL1        0.1694
      5 C          61.8765   88.7906   10.5403 C.3     1  UNL1        0.0435
      6 C          61.2996   89.8857    9.6929 C.3     1  UNL1        0.0040
      7 C          62.1037   88.0624   10.8566 C.3     1  UNL1        0.0038
      8 C          63.0713   89.8395   12.4901 C.3     1  UNL1        0.0001
      9 C          62.3441   87.3109   11.1924 C.3     1  UNL1        0.0001
     10 C          62.1378   86.6924   10.8299 C.3     1  UNL1        0.0005
     11 C          61.9003   86.0219   10.4152 C.3     1  UNL1        0.0093
     12 C          61.2981   85.0870    9.4086 C.3     1  UNL1        0.0082
     13 C          60.6067   85.9128    8.3645 C.3     1  UNL1        0.0645
     14 C          60.7816   87.3581    8.7259 C.2     1  UNL1        0.1504
     15 O          60.2503   88.5301    7.9551 O.2     1  UNL1       -0.2961
     16 C          61.5811   87.4255    9.9933 C.3     1  UNL1        0.0610
     17 C          62.6411   86.1013   11.5905 C.3     1  UNL1        0.0276
     18 C          62.6599   83.9036   11.4912 C.3     1  UNL1        0.0025
     19 C          63.1148   86.4400   12.3590 C.3     1  UNL1        0.1141
     20 O          63.9609   84.8339   13.6018 O.3     1  UNL1       -0.3841
     21 H          64.4258   85.2221   14.3594 H       1  UNL1        0.2103
     22 C          63.8052   88.8889   15.5613 C.2     1  UNL1       -0.0048
     23 C          64.3085   88.1664   14.3470 C.2     1  UNL1       -0.0243
     24 O          62.6005   90.8160   11.8035 O.3     1  UNL1       -0.4516
     25 C          63.8118   91.5961   11.3864 C.2     1  UNL1        0.3283
     26 O          63.7961   92.3783   10.1066 O.2     1  UNL1       -0.2491
     27 C          65.0389   91.5941   12.2490 C.3     1  UNL1        0.1715
     28 S          65.3191   92.7545   13.1573 S.3     1  UNL1       -0.1003
     29 C          66.4577   92.6866   14.1315 C.ar    1  UNL1        0.0461
     30 C          66.1926   92.7971   15.6038 C.ar    1  UNL1        0.1051
     31 N          67.3312   92.7292   16.5779 N.ar    1  UNL1       -0.2405
     32 C          68.7348   92.5508   16.0798 C.ar    1  UNL1        0.1129
     33 C          68.9999   92.4404   14.6076 C.ar    1  UNL1        0.0615
     34 N          70.4035   92.2621   14.1094 N.pl3   1  UNL1       -0.3558
     35 C          67.8613   92.5083   13.6334 C.ar    1  UNL1        0.0234
     36 H          71.1508   92.2175   14.7488 H       1  UNL1        0.1424
     37 H          70.5774   92.1896   13.1431 H       1  UNL1        0.1424
@<TRIPOS>BOND
     1    22    23    2
     2    23     1    1
     3     1     2    1
     4     1     3    1
     5     3     4    1
     6     4    24    1
     7    24    25    1
     8    25    26    2
     9    25    27    1
    10    27    28    1
    11    28    29    1
    12    29    30   ar
    13    30    31   ar
    14    31    32   ar
    15    32    33   ar
    16    33    34    1
    17    33    35   ar
    18     4     5    1
    19     5     6    1
    20     5     7    1
    21     7     8    1
    22     7     9    1
    23     9    10    1
    24    11    10    1
    25    11    12    1
    26    12    13    1
    27    13    14    1
    28    14    15    2
    29    16    14    1
    30    11    17    1
    31    17    18    1
    32    17    19    1
    33    19    20    1
    34    19     1    1
    35    35    29   ar
    36    16     5    1
    37    16    11    1
    38    34    36    1
    39    34    37    1
    40    20    21    1
@<TRIPOS>MOLECULE
*****
 37 40 0 0 0
SMALL
GASTEIGER

@<TRIPOS>ATOM
      1 C          63.1299   85.5401   11.9502 C.3     1  UNL1        0.0468
      2 C          64.3224   84.5354   13.3553 C.3     1  UNL1        0.0069
      3 C          62.5777   86.3293   11.9080 C.3     1  UNL1        0.0500
      4 C          62.0431   86.7518   11.2256 C.3     1  UNL1        0.1694
      5 C          61.4124   87.0360   10.0182 C.3     1  UNL1        0.0435
      6 C          60.4974   88.0561    9.4082 C.3     1  UNL1        0.0040
      7 C          61.9041   86.3873   10.1573 C.3     1  UNL1        0.0038
      8 C          61.8401   87.6817   12.4119 C.3     1  UNL1        0.0001
      9 C          62.4161   85.7167   10.3110 C.3     1  UNL1        0.0001
     10 C          62.5356   85.2415    9.7485 C.3     1  UNL1        0.0005
     11 C          62.6550   84.7289    9.1153 C.3     1  UNL1        0.0093
     12 C          62.6191   84.0656    7.7704 C.3     1  UNL1        0.0082
     13 C          61.7378   84.8835    6.8736 C.3     1  UNL1        0.0645
     14 C          61.2290   86.0523    7.6642 C.2     1  UNL1        0.1504
     15 O          60.3140   87.1278    7.1581 O.2     1  UNL1       -0.2961
     16 C          61.7959   85.9567    9.0496 C.3     1  UNL1        0.0610
     17 C          63.1727   84.6544   10.4048 C.3     1  UNL1        0.0276
     18 C          64.1590   82.8231    9.6880 C.3     1  UNL1        0.0025
     19 C          63.3764   84.8462   11.3275 C.3     1  UNL1        0.1141
     20 O          64.7184   83.3500   12.2222 O.3     1  UNL1       -0.3841
     21 H          64.8937   83.5847   13.1469 H       1  UNL1        0.2103
     22 C          64.3732   87.1133   14.5626 C.2     1  UNL1       -0.0048
     23 C          63.5037   86.0555   13.9503 C.2     1  UNL1       -0.0243
     24 O          61.0568   88.5830   11.9424 O.3     1  UNL1       -0.4516
     25 C          61.8810   89.7647   12.3597 C.2     1  UNL1        0.3283
     26 O          62.3712   89.8757   13.7730 O.2     1  UNL1       -0.2491
     27 C          62.2152   90.8354   11.3638 C.3     1  UNL1        0.1715
     28 S          63.6223   90.9839   10.8658 S.3     1  UNL1       -0.1003
     29 C          64.5723   91.9091   11.5669 C.ar    1  UNL1        0.0461
     30 C          64.7847   91.7856   13.0467 C.ar    1  UNL1        0.1051
     31 N          65.7347   92.7109   13.7478 N.ar    1  UNL1       -0.2405
     32 C          66.4722   93.7595   12.9691 C.ar    1  UNL1        0.1129
     33 C          66.2598   93.8830   11.4894 C.ar    1  UNL1        0.0615
     34 N          66.9974   94.9317   10.7107 N.pl3   1  UNL1       -0.3558
     35 C          65.3098   92.9578   10.7883 C.ar    1  UNL1        0.0234
     36 H          67.6209   95.5390   11.1708 H       1  UNL1        0.1424
     37 H          66.8579   95.0127    9.7395 H       1  UNL1        0.1424
@<TRIPOS>BOND
     1    22    23    2
     2    23     1    1
     3     1     2    1
     4     1     3    1
     5     3     4    1
     6     4    24    1
     7    24    25    1
     8    25    26    2
     9    25    27    1
    10    27    28    1
    11    28    29    1
    12    29    30   ar
    13    30    31   ar
    14    31    32   ar
    15    32    33   ar
    16    33    34    1
    17    33    35   ar
    18     4     5    1
    19     5     6    1
    20     5     7    1
    21     7     8    1
    22     7     9    1
    23     9    10    1
    24    11    10    1
    25    11    12    1
    26    12    13    1
    27    13    14    1
    28    14    15    2
    29    16    14    1
    30    11    17    1
    31    17    18    1
    32    17    19    1
    33    19    20    1
    34    19     1    1
    35    35    29   ar
    36    16     5    1
    37    16    11    1
    38    34    36    1
    39    34    37    1
    40    20    21    1
