@<TRIPOS>MOLECULE
*****
 33 37 0 0 0
SMALL
GASTEIGER

@<TRIPOS>ATOM
      1 C          63.7412   88.9810   15.6881 C.2     1  UNL1        0.1040
      2 N          62.7783   89.1134   16.8306 N.2     1  UNL1       -0.1483
      3 N          62.3393   87.7354   17.2287 N.2     1  UNL1       -0.1520
      4 C          63.0308   86.7514   16.3322 C.2     1  UNL1        0.0864
      5 C          62.9835   85.2540   16.2600 C.3     1  UNL1        0.0739
      6 C          63.8027   84.5263   15.2356 C.2     1  UNL1       -0.0160
      7 C          64.6691   85.2961   14.2834 C.2     1  UNL1       -0.0038
      8 C          64.7164   86.7936   14.3557 C.2     1  UNL1        0.0025
      9 C          63.8973   87.5213   15.3801 C.2     1  UNL1        0.0350
     10 C          63.7554   83.0288   15.1632 C.2     1  UNL1        0.0007
     11 C          63.5459   82.3479   13.8432 C.2     1  UNL1        0.0546
     12 C          63.4765   80.8668   13.6164 C.2     1  UNL1        0.2495
     13 O          63.6043   79.8065   14.6697 O.2     1  UNL1       -0.2698
     14 N          63.2568   80.6320   12.1513 N.am    1  UNL1       -0.2804
     15 C          63.1905   81.9681   11.4725 C.ar    1  UNL1        0.0506
     16 C          62.9905   82.3560   10.0375 C.ar    1  UNL1        0.0147
     17 C          62.9691   83.8044    9.6480 C.ar    1  UNL1        0.0013
     18 C          63.1479   84.8649   10.6938 C.ar    1  UNL1        0.0001
     19 C          63.3479   84.4769   12.1289 C.ar    1  UNL1        0.0014
     20 C          63.3692   83.0285   12.5183 C.ar    1  UNL1        0.0179
     21 H          63.1712   79.7550   11.7122 H       1  UNL1        0.1552
     22 C          64.0718   90.4287   13.5562 C.2     1  UNL1        0.0016
     23 C          64.4276   90.1101   14.9782 C.2     1  UNL1        0.0209
     24 C          66.1309   93.8161   11.4265 C.ar    1  UNL1       -0.0061
     25 C          65.1590   92.9455   10.6867 C.ar    1  UNL1       -0.0029
     26 C          64.4726   91.8164   11.3966 C.ar    1  UNL1       -0.0003
     27 C          64.7582   91.5579   12.8463 C.ar    1  UNL1        0.0000
     28 C          65.7301   92.4284   13.5861 C.ar    1  UNL1       -0.0003
     29 C          66.4165   93.5576   12.8762 C.ar    1  UNL1       -0.0029
     30 C          66.8173   94.9453   10.7167 C.3     1  UNL1        0.0992
     31 C          67.2583   95.6393    8.2522 C.3     1  UNL1        0.0899
     32 N          67.4935   94.7027    9.3999 N.3     1  UNL1       -0.2665
     33 C          68.4050   93.5235    9.2308 C.3     1  UNL1        0.0899
@<TRIPOS>BOND
     1    31    32    1
     2    32    33    1
     3    32    30    1
     4    30    24    1
     5    24    25   ar
     6    25    26   ar
     7    26    27   ar
     8    27    22    1
     9    22    23    2
    10    23     1    1
    11     1     2    2
    12     2     3    1
    13     3     4    2
    14     4     5    1
    15     5     6    1
    16     6    10    1
    17    10    11    2
    18    11    12    1
    19    12    13    2
    20    12    14   am
    21    14    15    1
    22    15    16   ar
    23    16    17   ar
    24    17    18   ar
    25    18    19   ar
    26    19    20   ar
    27     6     7    2
    28     7     8    1
    29     8     9    2
    30    27    28   ar
    31    28    29   ar
    32    29    24   ar
    33     9     1    1
    34     9     4    1
    35    20    11    1
    36    20    15   ar
    37    14    21    1
@<TRIPOS>MOLECULE
*****
 33 37 0 0 0
SMALL
GASTEIGER

@<TRIPOS>ATOM
      1 C          60.3166   89.1741    9.4503 C.2     1  UNL1        0.1040
      2 N          59.5851   89.4642   10.7272 N.2     1  UNL1       -0.1483
      3 N          59.8194   88.3182   11.6662 N.2     1  UNL1       -0.1520
      4 C          60.6958   87.3199   10.9697 C.2     1  UNL1        0.0864
      5 C          61.2537   85.9975   11.4055 C.3     1  UNL1        0.0739
      6 C          62.1188   85.2041   10.4718 C.2     1  UNL1       -0.0160
      7 C          62.4261   85.7330    9.1022 C.2     1  UNL1       -0.0038
      8 C          61.8683   87.0554    8.6664 C.2     1  UNL1        0.0025
      9 C          61.0031   87.8488    9.6001 C.2     1  UNL1        0.0350
     10 C          62.6768   83.8816   10.9076 C.2     1  UNL1        0.0007
     11 C          63.5005   83.7904   12.1579 C.2     1  UNL1        0.0546
     12 C          64.1210   82.5441   12.7159 C.2     1  UNL1        0.2495
     13 O          64.0269   81.1700   12.1217 O.2     1  UNL1       -0.2698
     14 N          64.8523   82.9129   13.9726 N.am    1  UNL1       -0.2804
     15 C          64.6837   84.3874   14.1912 C.ar    1  UNL1        0.0506
     16 C          65.1830   85.3060   15.2667 C.ar    1  UNL1        0.0147
     17 C          64.8468   86.7672   15.2206 C.ar    1  UNL1        0.0013
     18 C          64.0112   87.3095   14.0990 C.ar    1  UNL1        0.0001
     19 C          63.5120   86.3907   13.0236 C.ar    1  UNL1        0.0014
     20 C          63.8482   84.9296   13.0697 C.ar    1  UNL1        0.0179
     21 H          65.3547   82.2957   14.5521 H       1  UNL1        0.1552
     22 C          59.5918   89.6674    7.0045 C.2     1  UNL1        0.0016
     23 C          60.3550   90.0547    8.2365 C.2     1  UNL1        0.0209
     24 C          59.7069   92.3090    3.3634 C.ar    1  UNL1       -0.0061
     25 C          58.4041   92.0472    4.0589 C.ar    1  UNL1       -0.0029
     26 C          58.3657   91.1666    5.2727 C.ar    1  UNL1       -0.0003
     27 C          59.6301   90.5480    5.7908 C.ar    1  UNL1        0.0000
     28 C          60.9330   90.8099    5.0952 C.ar    1  UNL1       -0.0003
     29 C          60.9714   91.6904    3.8815 C.ar    1  UNL1       -0.0029
     30 C          59.7454   93.1896    2.1496 C.3     1  UNL1        0.0992
     31 C          60.1169   91.9568   -0.1070 C.3     1  UNL1        0.0899
     32 N          60.6334   92.8351    0.9938 N.3     1  UNL1       -0.2665
     33 C          62.0378   93.3590    0.9387 C.3     1  UNL1        0.0899
@<TRIPOS>BOND
     1    31    32    1
     2    32    33    1
     3    32    30    1
     4    30    24    1
     5    24    25   ar
     6    25    26   ar
     7    26    27   ar
     8    27    22    1
     9    22    23    2
    10    23     1    1
    11     1     2    2
    12     2     3    1
    13     3     4    2
    14     4     5    1
    15     5     6    1
    16     6    10    1
    17    10    11    2
    18    11    12    1
    19    12    13    2
    20    12    14   am
    21    14    15    1
    22    15    16   ar
    23    16    17   ar
    24    17    18   ar
    25    18    19   ar
    26    19    20   ar
    27     6     7    2
    28     7     8    1
    29     8     9    2
    30    27    28   ar
    31    28    29   ar
    32    29    24   ar
    33     9     1    1
    34     9     4    1
    35    20    11    1
    36    20    15   ar
    37    14    21    1
@<TRIPOS>MOLECULE
*****
 33 37 0 0 0
SMALL
GASTEIGER

@<TRIPOS>ATOM
      1 C          71.7819   76.8851   12.7640 C.2     1  UNL1        0.1040
      2 N          71.0795   77.5105   13.9325 N.2     1  UNL1       -0.1483
      3 N          70.9679   76.4766   15.0136 N.2     1  UNL1       -0.1520
      4 C          71.6014   75.2124   14.5132 C.2     1  UNL1        0.0864
      5 C          71.7850   73.8639   15.1439 C.3     1  UNL1        0.0739
      6 C          72.4718   72.7679   14.3843 C.2     1  UNL1       -0.0160
      7 C          72.9748   73.0203   12.9939 C.2     1  UNL1       -0.0038
      8 C          72.7912   74.3688   12.3632 C.2     1  UNL1        0.0025
      9 C          72.1044   75.4648   13.1228 C.2     1  UNL1        0.0350
     10 C          72.6555   71.4194   15.0151 C.2     1  UNL1        0.0007
     11 C          71.7862   70.2709   14.5964 C.2     1  UNL1        0.0546
     12 C          71.8529   68.8726   15.1351 C.2     1  UNL1        0.2495
     13 O          72.8006   68.3772   16.1870 O.2     1  UNL1       -0.2698
     14 N          70.8055   68.0565   14.4373 N.am    1  UNL1       -0.2804
     15 C          70.0914   68.9505   13.4672 C.ar    1  UNL1        0.0506
     16 C          68.9676   68.6951   12.5072 C.ar    1  UNL1        0.0147
     17 C          68.4499   69.8084   11.6453 C.ar    1  UNL1        0.0013
     18 C          69.0560   71.1770   11.7437 C.ar    1  UNL1        0.0001
     19 C          70.1798   71.4323   12.7039 C.ar    1  UNL1        0.0014
     20 C          70.6975   70.3191   13.5656 C.ar    1  UNL1        0.0179
     21 H          70.6194   67.1018   14.5892 H       1  UNL1        0.1552
     22 C          72.3091   79.0468   11.4226 C.2     1  UNL1        0.0016
     23 C          72.1051   77.5613   11.4646 C.2     1  UNL1        0.0209
     24 C          73.2786   81.0754    7.5246 C.ar    1  UNL1       -0.0061
     25 C          73.5943   79.6211    7.7120 C.ar    1  UNL1       -0.0029
     26 C          73.2711   78.9449    9.0113 C.ar    1  UNL1       -0.0003
     27 C          72.6323   79.7230   10.1232 C.ar    1  UNL1        0.0000
     28 C          72.3166   81.1774    9.9359 C.ar    1  UNL1       -0.0003
     29 C          72.6398   81.8536    8.6365 C.ar    1  UNL1       -0.0029
     30 C          73.6017   81.7517    6.2252 C.3     1  UNL1        0.0992
     31 C          73.2821   81.7595    3.6469 C.3     1  UNL1        0.0899
     32 N          72.7356   81.5189    5.0229 N.3     1  UNL1       -0.2665
     33 C          71.3229   81.0456    5.1965 C.3     1  UNL1        0.0899
@<TRIPOS>BOND
     1    31    32    1
     2    32    33    1
     3    32    30    1
     4    30    24    1
     5    24    25   ar
     6    25    26   ar
     7    26    27   ar
     8    27    22    1
     9    22    23    2
    10    23     1    1
    11     1     2    2
    12     2     3    1
    13     3     4    2
    14     4     5    1
    15     5     6    1
    16     6    10    1
    17    10    11    2
    18    11    12    1
    19    12    13    2
    20    12    14   am
    21    14    15    1
    22    15    16   ar
    23    16    17   ar
    24    17    18   ar
    25    18    19   ar
    26    19    20   ar
    27     6     7    2
    28     7     8    1
    29     8     9    2
    30    27    28   ar
    31    28    29   ar
    32    29    24   ar
    33     9     1    1
    34     9     4    1
    35    20    11    1
    36    20    15   ar
    37    14    21    1
@<TRIPOS>MOLECULE
*****
 33 37 0 0 0
SMALL
GASTEIGER

@<TRIPOS>ATOM
      1 C          62.6638   85.5299   16.3764 C.2     1  UNL1        0.1040
      2 N          61.9384   85.9456   17.6218 N.2     1  UNL1       -0.1483
      3 N          62.2013   87.4053   17.8459 N.2     1  UNL1       -0.1520
      4 C          63.0893   87.8917   16.7392 C.2     1  UNL1        0.0864
      5 C          63.6744   89.2403   16.4411 C.3     1  UNL1        0.0739
      6 C          64.5455   89.4298   15.2347 C.2     1  UNL1       -0.0160
      7 C          64.8313   88.2707   14.3265 C.2     1  UNL1       -0.0038
      8 C          64.2462   86.9222   14.6246 C.2     1  UNL1        0.0025
      9 C          63.3751   86.7327   15.8309 C.2     1  UNL1        0.0350
     10 C          65.1307   90.7784   14.9365 C.2     1  UNL1        0.0007
     11 C          64.8766   91.4294   13.6093 C.2     1  UNL1        0.0546
     12 C          65.3926   92.7678   13.1706 C.2     1  UNL1        0.2495
     13 O          66.2533   93.6901   13.9821 O.2     1  UNL1       -0.2698
     14 N          64.8967   93.0220   11.7780 N.am    1  UNL1       -0.2804
     15 C          64.0742   91.8406   11.3559 C.ar    1  UNL1        0.0506
     16 C          63.3351   91.5342   10.0872 C.ar    1  UNL1        0.0147
     17 C          62.5834   90.2433    9.9503 C.ar    1  UNL1        0.0013
     18 C          62.5709   89.2590   11.0823 C.ar    1  UNL1        0.0001
     19 C          63.3101   89.5656   12.3509 C.ar    1  UNL1        0.0014
     20 C          64.0618   90.8564   12.4878 C.ar    1  UNL1        0.0179
     21 H          65.0791   93.8234   11.2360 H       1  UNL1        0.1552
     22 C          62.4034   83.9664   14.3178 C.2     1  UNL1        0.0016
     23 C          62.6759   84.1532   15.7811 C.2     1  UNL1        0.0209
     24 C          62.4397   79.8363   12.5317 C.ar    1  UNL1       -0.0061
     25 C          61.7084   80.0914   13.8162 C.ar    1  UNL1       -0.0029
     26 C          61.6963   81.4682   14.4116 C.ar    1  UNL1       -0.0003
     27 C          62.4155   82.5897   13.7224 C.ar    1  UNL1        0.0000
     28 C          63.1468   82.3345   12.4379 C.ar    1  UNL1       -0.0003
     29 C          63.1589   80.9578   11.8425 C.ar    1  UNL1       -0.0029
     30 C          62.4518   78.4596   11.9362 C.3     1  UNL1        0.0992
     31 C          63.4926   76.9770   10.0737 C.3     1  UNL1        0.0899
     32 N          62.8563   78.2651   10.5049 N.3     1  UNL1       -0.2665
     33 C          62.6244   79.3587    9.5048 C.3     1  UNL1        0.0899
@<TRIPOS>BOND
     1    31    32    1
     2    32    33    1
     3    32    30    1
     4    30    24    1
     5    24    25   ar
     6    25    26   ar
     7    26    27   ar
     8    27    22    1
     9    22    23    2
    10    23     1    1
    11     1     2    2
    12     2     3    1
    13     3     4    2
    14     4     5    1
    15     5     6    1
    16     6    10    1
    17    10    11    2
    18    11    12    1
    19    12    13    2
    20    12    14   am
    21    14    15    1
    22    15    16   ar
    23    16    17   ar
    24    17    18   ar
    25    18    19   ar
    26    19    20   ar
    27     6     7    2
    28     7     8    1
    29     8     9    2
    30    27    28   ar
    31    28    29   ar
    32    29    24   ar
    33     9     1    1
    34     9     4    1
    35    20    11    1
    36    20    15   ar
    37    14    21    1
@<TRIPOS>MOLECULE
*****
 33 37 0 0 0
SMALL
GASTEIGER

@<TRIPOS>ATOM
      1 C          62.1296   87.3235   11.6410 C.2     1  UNL1        0.1040
      2 N          61.3404   88.3162   10.8400 N.2     1  UNL1       -0.1483
      3 N          61.7370   89.6921   11.2867 N.2     1  UNL1       -0.1520
      4 C          62.7712   89.5498   12.3638 C.2     1  UNL1        0.0864
      5 C          63.5233   90.5640   13.1734 C.3     1  UNL1        0.0739
      6 C          64.5181   90.1143   14.2020 C.2     1  UNL1       -0.0160
      7 C          64.7608   88.6504   14.4210 C.2     1  UNL1       -0.0038
      8 C          64.0087   87.6361   13.6114 C.2     1  UNL1        0.0025
      9 C          63.0139   88.0858   12.5827 C.2     1  UNL1        0.0350
     10 C          65.2703   91.1286   15.0118 C.2     1  UNL1        0.0007
     11 C          65.8451   92.3434   14.3456 C.2     1  UNL1        0.0546
     12 C          66.6171   93.4374   15.0216 C.2     1  UNL1        0.2495
     13 O          66.9499   93.5088   16.4824 O.2     1  UNL1       -0.2698
     14 N          66.9979   94.4476   13.9802 N.am    1  UNL1       -0.2804
     15 C          66.4613   93.9779   12.6605 C.ar    1  UNL1        0.0506
     16 C          66.5294   94.5664   11.2826 C.ar    1  UNL1        0.0147
     17 C          65.8850   93.8544   10.1302 C.ar    1  UNL1        0.0013
     18 C          65.1724   92.5538   10.3561 C.ar    1  UNL1        0.0001
     19 C          65.1044   91.9653   11.7341 C.ar    1  UNL1        0.0014
     20 C          65.7488   92.6774   12.8864 C.ar    1  UNL1        0.0179
     21 H          67.5102   95.2739   14.1356 H       1  UNL1        0.1552
     22 C          62.9457   84.9617   12.3526 C.2     1  UNL1        0.0016
     23 C          62.0488   85.8304   11.5213 C.2     1  UNL1        0.0209
     24 C          62.7031   80.4827   11.9935 C.ar    1  UNL1       -0.0061
     25 C          63.3355   81.2896   10.8986 C.ar    1  UNL1       -0.0029
     26 C          63.4163   82.7826   11.0183 C.ar    1  UNL1       -0.0003
     27 C          62.8648   83.4686   12.2329 C.ar    1  UNL1        0.0000
     28 C          62.2324   82.6617   13.3278 C.ar    1  UNL1       -0.0003
     29 C          62.1516   81.1687   13.2081 C.ar    1  UNL1       -0.0029
     30 C          62.6222   78.9896   11.8739 C.3     1  UNL1        0.0992
     31 C          63.1353   76.8769   10.4515 C.3     1  UNL1        0.0899
     32 N          62.7905   78.3343   10.5351 N.3     1  UNL1       -0.2665
     33 C          62.6140   79.1364    9.2800 C.3     1  UNL1        0.0899
@<TRIPOS>BOND
     1    31    32    1
     2    32    33    1
     3    32    30    1
     4    30    24    1
     5    24    25   ar
     6    25    26   ar
     7    26    27   ar
     8    27    22    1
     9    22    23    2
    10    23     1    1
    11     1     2    2
    12     2     3    1
    13     3     4    2
    14     4     5    1
    15     5     6    1
    16     6    10    1
    17    10    11    2
    18    11    12    1
    19    12    13    2
    20    12    14   am
    21    14    15    1
    22    15    16   ar
    23    16    17   ar
    24    17    18   ar
    25    18    19   ar
    26    19    20   ar
    27     6     7    2
    28     7     8    1
    29     8     9    2
    30    27    28   ar
    31    28    29   ar
    32    29    24   ar
    33     9     1    1
    34     9     4    1
    35    20    11    1
    36    20    15   ar
    37    14    21    1
