@<TRIPOS>MOLECULE
*****
 32 36 0 0 0
SMALL
GASTEIGER

@<TRIPOS>ATOM
      1 O          65.6248   92.9165   12.0397 O.2     1  UNL1       -0.2522
      2 C          65.1488   91.6479   12.6832 C.2     1  UNL1        0.3077
      3 N          65.7960   91.1582   13.9447 N.am    1  UNL1       -0.2681
      4 N          64.0256   90.8690   12.0651 N.am    1  UNL1       -0.2640
      5 C          63.3786   91.3588   10.8037 C.3     1  UNL1        0.0950
      6 C          62.2554   90.5799   10.1857 C.3     1  UNL1        0.0240
      7 C          61.7794   89.3113   10.8292 C.3     1  UNL1        0.0304
      8 C          62.4265   88.8215   12.0906 C.3     1  UNL1        0.0240
      9 C          63.5497   89.6004   12.7086 C.3     1  UNL1        0.0950
     10 H          65.4836   90.3255   14.3670 H       1  UNL1        0.1564
     11 C          66.9191   91.9370   14.5627 C.ar    1  UNL1        0.0516
     12 C          68.2965   91.8624   13.9736 C.ar    1  UNL1        0.0147
     13 C          69.4197   92.6413   14.5915 C.ar    1  UNL1        0.0013
     14 C          69.1654   93.4947   15.7986 C.ar    1  UNL1        0.0001
     15 C          67.7879   93.5694   16.3877 C.ar    1  UNL1        0.0013
     16 C          66.6648   92.7905   15.7697 C.ar    1  UNL1        0.0147
     17 C          60.6563   88.5324   10.2112 C.3     1  UNL1        0.1128
     18 O          59.7176   89.2025    9.2521 O.3     1  UNL1       -0.3844
     19 H          59.0550   88.5628    8.9479 H       1  UNL1        0.2103
     20 C          60.4718   87.0833   10.5523 C.3     1  UNL1        0.0564
     21 C          61.4049   86.0547    9.9854 C.3     1  UNL1        0.1119
     22 C          62.3909   85.2347   10.7635 C.ar    1  UNL1       -0.0002
     23 C          62.7258   85.1880   12.2249 C.ar    1  UNL1       -0.0024
     24 C          63.7810   84.2454   12.7227 C.ar    1  UNL1       -0.0003
     25 C          64.5014   83.3495   11.7592 C.ar    1  UNL1        0.0000
     26 C          64.1665   83.3961   10.2979 C.ar    1  UNL1        0.0012
     27 C          63.1112   84.3387    9.8000 C.ar    1  UNL1        0.0152
     28 C          62.5704   84.6051    8.4265 C.ar    1  UNL1        0.0804
     29 C          62.6814   84.2159    6.9820 C.ar    1  UNL1        0.1177
     30 N          61.6955   85.0360    6.2040 N.ar    1  UNL1       -0.2223
     31 C          60.9751   85.9320    7.1675 C.ar    1  UNL1        0.1788
     32 N          61.5159   85.6656    8.5411 N.ar    1  UNL1       -0.3069
@<TRIPOS>BOND
     1     1     2    2
     2     2     3   am
     3     3    11    1
     4    11    12   ar
     5    12    13   ar
     6    13    14   ar
     7    14    15   ar
     8    15    16   ar
     9     2     4   am
    10     4     5    1
    11     5     6    1
    12     6     7    1
    13     7    17    1
    14    17    18    1
    15    17    20    1
    16    20    21    1
    17    21    22    1
    18    22    23   ar
    19    23    24   ar
    20    24    25   ar
    21    25    26   ar
    22    26    27   ar
    23    27    28    1
    24    28    29   ar
    25    29    30   ar
    26    30    31   ar
    27    31    32   ar
    28     7     8    1
    29     8     9    1
    30    16    11   ar
    31     9     4    1
    32    32    21    1
    33    27    22   ar
    34    32    28   ar
    35     3    10    1
    36    18    19    1
@<TRIPOS>MOLECULE
*****
 32 36 0 0 0
SMALL
GASTEIGER

@<TRIPOS>ATOM
      1 O          61.7751   84.5208   10.5491 O.2     1  UNL1       -0.2522
      2 C          62.4171   85.2919   11.6641 C.2     1  UNL1        0.3077
      3 N          62.8482   84.5841   12.9143 N.am    1  UNL1       -0.2681
      4 N          62.6280   86.7709   11.5288 N.am    1  UNL1       -0.2640
      5 C          62.1969   87.4786   10.2786 C.3     1  UNL1        0.0950
      6 C          62.4079   88.9576   10.1433 C.3     1  UNL1        0.0240
      7 C          63.0499   89.7286   11.2583 C.3     1  UNL1        0.0304
      8 C          63.4810   89.0209   12.5086 C.3     1  UNL1        0.0240
      9 C          63.2701   87.5419   12.6438 C.3     1  UNL1        0.0950
     10 H          63.2696   85.0901   13.6462 H       1  UNL1        0.1564
     11 C          62.6373   83.1051   13.0496 C.ar    1  UNL1        0.0516
     12 C          63.2025   82.1700   12.0220 C.ar    1  UNL1        0.0147
     13 C          62.9916   80.6910   12.1572 C.ar    1  UNL1        0.0013
     14 C          62.2155   80.1473   13.3199 C.ar    1  UNL1        0.0001
     15 C          61.6502   81.0825   14.3475 C.ar    1  UNL1        0.0013
     16 C          61.8611   82.5614   14.2123 C.ar    1  UNL1        0.0147
     17 C          63.2608   91.2076   11.1231 C.3     1  UNL1        0.1128
     18 O          62.9472   91.8945    9.8271 O.3     1  UNL1       -0.3844
     19 H          63.1385   92.8419    9.9087 H       1  UNL1        0.2103
     20 C          63.7854   91.9996   12.2840 C.3     1  UNL1        0.0564
     21 C          65.2647   92.1405   12.4886 C.3     1  UNL1        0.1119
     22 C          65.9681   92.2223   13.8109 C.ar    1  UNL1       -0.0002
     23 C          65.4596   92.1918   15.2218 C.ar    1  UNL1       -0.0024
     24 C          66.4215   92.2956   16.3680 C.ar    1  UNL1       -0.0003
     25 C          67.8919   92.4300   16.1034 C.ar    1  UNL1        0.0000
     26 C          68.4003   92.4605   14.6926 C.ar    1  UNL1        0.0012
     27 C          67.4384   92.3566   13.5463 C.ar    1  UNL1        0.0152
     28 C          67.6438   92.3579   12.0605 C.ar    1  UNL1        0.0804
     29 C          68.6795   92.4417   10.9786 C.ar    1  UNL1        0.1177
     30 N          67.9760   92.3598    9.6562 N.ar    1  UNL1       -0.2223
     31 C          66.5057   92.2255    9.9208 C.ar    1  UNL1        0.1788
     32 N          66.3003   92.2243   11.4067 N.ar    1  UNL1       -0.3069
@<TRIPOS>BOND
     1     1     2    2
     2     2     3   am
     3     3    11    1
     4    11    12   ar
     5    12    13   ar
     6    13    14   ar
     7    14    15   ar
     8    15    16   ar
     9     2     4   am
    10     4     5    1
    11     5     6    1
    12     6     7    1
    13     7    17    1
    14    17    18    1
    15    17    20    1
    16    20    21    1
    17    21    22    1
    18    22    23   ar
    19    23    24   ar
    20    24    25   ar
    21    25    26   ar
    22    26    27   ar
    23    27    28    1
    24    28    29   ar
    25    29    30   ar
    26    30    31   ar
    27    31    32   ar
    28     7     8    1
    29     8     9    1
    30    16    11   ar
    31     9     4    1
    32    32    21    1
    33    27    22   ar
    34    32    28   ar
    35     3    10    1
    36    18    19    1
@<TRIPOS>MOLECULE
*****
 32 36 0 0 0
SMALL
GASTEIGER

@<TRIPOS>ATOM
      1 O          63.7685   84.5577   14.1811 O.2     1  UNL1       -0.2522
      2 C          63.0999   84.9906   12.9101 C.2     1  UNL1        0.3077
      3 N          62.4404   83.9742   12.0258 N.am    1  UNL1       -0.2681
      4 N          63.0908   86.4399   12.5234 N.am    1  UNL1       -0.2640
      5 C          63.7504   87.4562   13.4078 C.3     1  UNL1        0.0950
      6 C          63.7413   88.9054   13.0211 C.3     1  UNL1        0.0240
      7 C          63.0727   89.3384   11.7500 C.3     1  UNL1        0.0304
      8 C          62.4131   88.3221   10.8657 C.3     1  UNL1        0.0240
      9 C          62.4222   86.8728   11.2524 C.3     1  UNL1        0.0950
     10 H          62.0015   84.2583   11.1915 H       1  UNL1        0.1564
     11 C          62.4494   82.5249   12.4125 C.ar    1  UNL1        0.0516
     12 C          61.9583   82.1071   13.7667 C.ar    1  UNL1        0.0147
     13 C          61.9673   80.6578   14.1536 C.ar    1  UNL1        0.0013
     14 C          62.4676   79.6265   13.1860 C.ar    1  UNL1        0.0001
     15 C          62.9588   80.0444   11.8317 C.ar    1  UNL1        0.0013
     16 C          62.9497   81.4936   11.4449 C.ar    1  UNL1        0.0147
     17 C          63.0636   90.7876   11.3633 C.3     1  UNL1        0.1128
     18 O          61.8458   91.6249   11.6205 O.3     1  UNL1       -0.3844
     19 H          62.0056   92.5309   11.3131 H       1  UNL1        0.2103
     20 C          64.2723   91.3997   10.7194 C.3     1  UNL1        0.0564
     21 C          65.0567   92.4523   11.4451 C.3     1  UNL1        0.1119
     22 C          65.5955   92.3448   12.8409 C.ar    1  UNL1       -0.0002
     23 C          65.5263   91.2480   13.8618 C.ar    1  UNL1       -0.0024
     24 C          66.1735   91.4297   15.2027 C.ar    1  UNL1       -0.0003
     25 C          66.8898   92.7081   15.5228 C.ar    1  UNL1        0.0000
     26 C          66.9590   93.8049   14.5019 C.ar    1  UNL1        0.0012
     27 C          66.3118   93.6233   13.1610 C.ar    1  UNL1        0.0152
     28 C          66.2157   94.5208   11.9630 C.ar    1  UNL1        0.0804
     29 C          66.5991   95.8657   11.4204 C.ar    1  UNL1        0.1177
     30 N          66.0603   95.9731   10.0246 N.ar    1  UNL1       -0.2223
     31 C          65.3440   94.6947    9.7045 C.ar    1  UNL1        0.1788
     32 N          65.4401   93.7971   10.9025 N.ar    1  UNL1       -0.3069
@<TRIPOS>BOND
     1     1     2    2
     2     2     3   am
     3     3    11    1
     4    11    12   ar
     5    12    13   ar
     6    13    14   ar
     7    14    15   ar
     8    15    16   ar
     9     2     4   am
    10     4     5    1
    11     5     6    1
    12     6     7    1
    13     7    17    1
    14    17    18    1
    15    17    20    1
    16    20    21    1
    17    21    22    1
    18    22    23   ar
    19    23    24   ar
    20    24    25   ar
    21    25    26   ar
    22    26    27   ar
    23    27    28    1
    24    28    29   ar
    25    29    30   ar
    26    30    31   ar
    27    31    32   ar
    28     7     8    1
    29     8     9    1
    30    16    11   ar
    31     9     4    1
    32    32    21    1
    33    27    22   ar
    34    32    28   ar
    35     3    10    1
    36    18    19    1
@<TRIPOS>MOLECULE
*****
 32 36 0 0 0
SMALL
GASTEIGER

@<TRIPOS>ATOM
      1 O          65.9682   93.0469   12.1220 O.2     1  UNL1       -0.2522
      2 C          65.4347   91.8533   12.8573 C.2     1  UNL1        0.3077
      3 N          66.0825   91.4083   14.1350 N.am    1  UNL1       -0.2681
      4 N          64.2533   91.1048   12.3150 N.am    1  UNL1       -0.2640
      5 C          63.6056   91.5498   11.0374 C.3     1  UNL1        0.0950
      6 C          62.4243   90.8013   10.4951 C.3     1  UNL1        0.0240
      7 C          61.8907   89.6077   11.2304 C.3     1  UNL1        0.0304
      8 C          62.5384   89.1626   12.5080 C.3     1  UNL1        0.0240
      9 C          63.7198   89.9112   13.0503 C.3     1  UNL1        0.0950
     10 H          65.7323   90.6249   14.6176 H       1  UNL1        0.1564
     11 C          67.2638   92.1569   14.6773 C.ar    1  UNL1        0.0516
     12 C          67.0809   93.1355   15.7992 C.ar    1  UNL1        0.0147
     13 C          68.2622   93.8842   16.3415 C.ar    1  UNL1        0.0013
     14 C          69.6264   93.6540   15.7619 C.ar    1  UNL1        0.0001
     15 C          69.8094   92.6753   14.6400 C.ar    1  UNL1        0.0013
     16 C          68.6280   91.9267   14.0977 C.ar    1  UNL1        0.0147
     17 C          60.7094   88.8591   10.6881 C.3     1  UNL1        0.1128
     18 O          59.7568   89.5392    9.7499 O.3     1  UNL1       -0.3844
     19 H          59.0551   88.9194    9.4962 H       1  UNL1        0.2103
     20 C          60.4806   87.4304   11.0839 C.3     1  UNL1        0.0564
     21 C          61.3869   86.3539   10.5645 C.3     1  UNL1        0.1119
     22 C          61.4739   85.8849    9.1424 C.ar    1  UNL1       -0.0002
     23 C          60.7466   86.3066    7.9002 C.ar    1  UNL1       -0.0024
     24 C          61.0515   85.6420    6.5905 C.ar    1  UNL1       -0.0003
     25 C          62.0836   84.5557    6.5230 C.ar    1  UNL1        0.0000
     26 C          62.8109   84.1340    7.7652 C.ar    1  UNL1        0.0012
     27 C          62.5060   84.7985    9.0749 C.ar    1  UNL1        0.0152
     28 C          63.0569   84.5962   10.4554 C.ar    1  UNL1        0.0804
     29 C          64.0353   83.7997   11.2668 C.ar    1  UNL1        0.1177
     30 N          63.9483   84.2688   12.6890 N.ar    1  UNL1       -0.2223
     31 C          62.9161   85.3552   12.7564 C.ar    1  UNL1        0.1788
     32 N          62.3652   85.5575   11.3760 N.ar    1  UNL1       -0.3069
@<TRIPOS>BOND
     1     1     2    2
     2     2     3   am
     3     3    11    1
     4    11    12   ar
     5    12    13   ar
     6    13    14   ar
     7    14    15   ar
     8    15    16   ar
     9     2     4   am
    10     4     5    1
    11     5     6    1
    12     6     7    1
    13     7    17    1
    14    17    18    1
    15    17    20    1
    16    20    21    1
    17    21    22    1
    18    22    23   ar
    19    23    24   ar
    20    24    25   ar
    21    25    26   ar
    22    26    27   ar
    23    27    28    1
    24    28    29   ar
    25    29    30   ar
    26    30    31   ar
    27    31    32   ar
    28     7     8    1
    29     8     9    1
    30    16    11   ar
    31     9     4    1
    32    32    21    1
    33    27    22   ar
    34    32    28   ar
    35     3    10    1
    36    18    19    1
@<TRIPOS>MOLECULE
*****
 32 36 0 0 0
SMALL
GASTEIGER

@<TRIPOS>ATOM
      1 O          63.6086   82.1950   14.5777 O.2     1  UNL1       -0.2522
      2 C          63.4172   83.2878   13.5683 C.2     1  UNL1        0.3077
      3 N          63.0988   82.9450   12.1431 N.am    1  UNL1       -0.2681
      4 N          63.5442   84.7235   13.9841 N.am    1  UNL1       -0.2640
      5 C          63.8626   85.0662   15.4092 C.3     1  UNL1        0.0950
      6 C          63.9896   86.5018   15.8249 C.3     1  UNL1        0.0240
      7 C          63.7982   87.5947   14.8155 C.3     1  UNL1        0.0304
      8 C          63.4798   87.2520   13.3903 C.3     1  UNL1        0.0240
      9 C          63.3528   85.8163   12.9746 C.3     1  UNL1        0.0950
     10 H          62.9732   83.6623   11.4806 H       1  UNL1        0.1564
     11 C          62.9718   81.5094   11.7274 C.ar    1  UNL1        0.0516
     12 C          62.6322   80.4612   12.7452 C.ar    1  UNL1        0.0147
     13 C          62.5052   79.0255   12.3296 C.ar    1  UNL1        0.0013
     14 C          62.7177   78.6381   10.8962 C.ar    1  UNL1        0.0001
     15 C          63.0573   79.6864    9.8783 C.ar    1  UNL1        0.0013
     16 C          63.1843   81.1220   10.2940 C.ar    1  UNL1        0.0147
     17 C          63.9252   89.0303   15.2311 C.3     1  UNL1        0.1128
     18 O          62.8966   89.6434   16.1345 O.3     1  UNL1       -0.3844
     19 H          63.1264   90.5704   16.3039 H       1  UNL1        0.2103
     20 C          65.0809   89.8530   14.7434 C.3     1  UNL1        0.0564
     21 C          64.9149   90.7463   13.5500 C.3     1  UNL1        0.1119
     22 C          63.9799   90.5163   12.3998 C.ar    1  UNL1       -0.0002
     23 C          63.0022   89.4175   12.1054 C.ar    1  UNL1       -0.0024
     24 C          62.1863   89.4569   10.8473 C.ar    1  UNL1       -0.0003
     25 C          62.3481   90.5949    9.8837 C.ar    1  UNL1        0.0000
     26 C          63.3258   91.6937   10.1781 C.ar    1  UNL1        0.0012
     27 C          64.1418   91.6544   11.4361 C.ar    1  UNL1        0.0152
     28 C          65.1767   92.5878   11.9908 C.ar    1  UNL1        0.0804
     29 C          65.9164   93.8681   11.7380 C.ar    1  UNL1        0.1177
     30 N          66.8513   94.0981   12.8883 N.ar    1  UNL1       -0.2223
     31 C          66.6895   92.9600   13.8519 C.ar    1  UNL1        0.1788
     32 N          65.6545   92.0266   13.2972 N.ar    1  UNL1       -0.3069
@<TRIPOS>BOND
     1     1     2    2
     2     2     3   am
     3     3    11    1
     4    11    12   ar
     5    12    13   ar
     6    13    14   ar
     7    14    15   ar
     8    15    16   ar
     9     2     4   am
    10     4     5    1
    11     5     6    1
    12     6     7    1
    13     7    17    1
    14    17    18    1
    15    17    20    1
    16    20    21    1
    17    21    22    1
    18    22    23   ar
    19    23    24   ar
    20    24    25   ar
    21    25    26   ar
    22    26    27   ar
    23    27    28    1
    24    28    29   ar
    25    29    30   ar
    26    30    31   ar
    27    31    32   ar
    28     7     8    1
    29     8     9    1
    30    16    11   ar
    31     9     4    1
    32    32    21    1
    33    27    22   ar
    34    32    28   ar
    35     3    10    1
    36    18    19    1
@<TRIPOS>MOLECULE
*****
 32 36 0 0 0
SMALL
GASTEIGER

@<TRIPOS>ATOM
      1 O          63.7232   84.0503   14.6819 O.2     1  UNL1       -0.2522
      2 C          63.5947   85.1731   13.6956 C.2     1  UNL1        0.3077
      3 N          63.4049   84.8731   12.2383 N.am    1  UNL1       -0.2681
      4 N          63.6561   86.5959   14.1668 N.am    1  UNL1       -0.2640
      5 C          63.8460   86.8958   15.6241 C.3     1  UNL1        0.0950
      6 C          63.9073   88.3186   16.0952 C.3     1  UNL1        0.0240
      7 C          63.7788   89.4414   15.1089 C.3     1  UNL1        0.0304
      8 C          63.5890   89.1415   13.6516 C.3     1  UNL1        0.0240
      9 C          63.5276   87.7187   13.1805 C.3     1  UNL1        0.0950
     10 H          63.3206   85.6100   11.5909 H       1  UNL1        0.1564
     11 C          63.3436   83.4503   11.7672 C.ar    1  UNL1        0.0516
     12 C          64.0158   83.0549   10.4859 C.ar    1  UNL1        0.0147
     13 C          63.9545   81.6321   10.0147 C.ar    1  UNL1        0.0013
     14 C          63.2209   80.6048   10.8250 C.ar    1  UNL1        0.0001
     15 C          62.5487   81.0002   12.1064 C.ar    1  UNL1        0.0013
     16 C          62.6100   82.4230   12.5774 C.ar    1  UNL1        0.0147
     17 C          63.8402   90.8642   15.5800 C.3     1  UNL1        0.1128
     18 O          63.5933   91.1875   17.0238 O.3     1  UNL1       -0.3844
     19 H          63.6702   92.1450   17.1584 H       1  UNL1        0.2103
     20 C          64.1484   91.9637   14.6072 C.3     1  UNL1        0.0564
     21 C          65.5445   92.1344   14.0860 C.3     1  UNL1        0.1119
     22 C          65.9420   92.2221   12.6423 C.ar    1  UNL1       -0.0002
     23 C          65.1402   92.1714   11.3756 C.ar    1  UNL1       -0.0024
     24 C          65.8278   92.2878   10.0476 C.ar    1  UNL1       -0.0003
     25 C          67.3172   92.4550    9.9863 C.ar    1  UNL1        0.0000
     26 C          68.1190   92.5057   11.2529 C.ar    1  UNL1        0.0012
     27 C          67.4314   92.3893   12.5809 C.ar    1  UNL1        0.0152
     28 C          67.9544   92.4048   13.9867 C.ar    1  UNL1        0.0804
     29 C          69.1982   92.5177   14.8177 C.ar    1  UNL1        0.1177
     30 N          68.8006   92.4300   16.2614 N.ar    1  UNL1       -0.2223
     31 C          67.3112   92.2628   16.3227 C.ar    1  UNL1        0.1788
     32 N          66.7882   92.2473   14.9169 N.ar    1  UNL1       -0.3069
@<TRIPOS>BOND
     1     1     2    2
     2     2     3   am
     3     3    11    1
     4    11    12   ar
     5    12    13   ar
     6    13    14   ar
     7    14    15   ar
     8    15    16   ar
     9     2     4   am
    10     4     5    1
    11     5     6    1
    12     6     7    1
    13     7    17    1
    14    17    18    1
    15    17    20    1
    16    20    21    1
    17    21    22    1
    18    22    23   ar
    19    23    24   ar
    20    24    25   ar
    21    25    26   ar
    22    26    27   ar
    23    27    28    1
    24    28    29   ar
    25    29    30   ar
    26    30    31   ar
    27    31    32   ar
    28     7     8    1
    29     8     9    1
    30    16    11   ar
    31     9     4    1
    32    32    21    1
    33    27    22   ar
    34    32    28   ar
    35     3    10    1
    36    18    19    1
@<TRIPOS>MOLECULE
*****
 32 36 0 0 0
SMALL
GASTEIGER

@<TRIPOS>ATOM
      1 O          55.8328   93.1587   -3.3341 O.2     1  UNL1       -0.2522
      2 C          56.3134   94.2237   -2.3935 C.2     1  UNL1        0.3077
      3 N          55.5978   95.5400   -2.3224 N.am    1  UNL1       -0.2681
      4 N          57.5096   93.9722   -1.5240 N.am    1  UNL1       -0.2640
      5 C          58.2252   92.6559   -1.5952 C.3     1  UNL1        0.0950
      6 C          59.4213   92.4045   -0.7258 C.3     1  UNL1        0.0240
      7 C          59.9019   93.4695    0.2148 C.3     1  UNL1        0.0304
      8 C          59.1864   94.7859    0.2860 C.3     1  UNL1        0.0240
      9 C          57.9902   95.0373   -0.5834 C.3     1  UNL1        0.0950
     10 H          55.9132   96.2391   -1.7050 H       1  UNL1        0.1564
     11 C          54.4016   95.7914   -3.1918 C.ar    1  UNL1        0.0516
     12 C          53.0393   95.9131   -2.5761 C.ar    1  UNL1        0.0147
     13 C          51.8430   96.1644   -3.4455 C.ar    1  UNL1        0.0013
     14 C          52.0092   96.2941   -4.9306 C.ar    1  UNL1        0.0001
     15 C          53.3717   96.1724   -5.5464 C.ar    1  UNL1        0.0013
     16 C          54.5678   95.9210   -4.6769 C.ar    1  UNL1        0.0147
     17 C          61.0981   93.2182    1.0843 C.3     1  UNL1        0.1128
     18 O          60.9935   93.3876    2.5710 O.3     1  UNL1       -0.3844
     19 H          61.8499   93.1875    2.9803 H       1  UNL1        0.2103
     20 C          62.3989   92.7974    0.4670 C.3     1  UNL1        0.0564
     21 C          63.2542   93.8062   -0.2408 C.3     1  UNL1        0.1119
     22 C          63.4673   93.8966   -1.7228 C.ar    1  UNL1       -0.0002
     23 C          62.9393   93.0794   -2.8645 C.ar    1  UNL1       -0.0024
     24 C          63.3354   93.4134   -4.2721 C.ar    1  UNL1       -0.0003
     25 C          64.2594   94.5647   -4.5381 C.ar    1  UNL1        0.0000
     26 C          64.7873   95.3819   -3.3965 C.ar    1  UNL1        0.0012
     27 C          64.3913   95.0479   -1.9889 C.ar    1  UNL1        0.0152
     28 C          64.7492   95.6690   -0.6712 C.ar    1  UNL1        0.0804
     29 C          65.5416   96.7644   -0.0213 C.ar    1  UNL1        0.1177
     30 N          65.3284   96.6739    1.4607 N.ar    1  UNL1       -0.2223
     31 C          64.4044   95.5226    1.7268 C.ar    1  UNL1        0.1788
     32 N          64.0465   94.9016    0.4091 N.ar    1  UNL1       -0.3069
@<TRIPOS>BOND
     1     1     2    2
     2     2     3   am
     3     3    11    1
     4    11    12   ar
     5    12    13   ar
     6    13    14   ar
     7    14    15   ar
     8    15    16   ar
     9     2     4   am
    10     4     5    1
    11     5     6    1
    12     6     7    1
    13     7    17    1
    14    17    18    1
    15    17    20    1
    16    20    21    1
    17    21    22    1
    18    22    23   ar
    19    23    24   ar
    20    24    25   ar
    21    25    26   ar
    22    26    27   ar
    23    27    28    1
    24    28    29   ar
    25    29    30   ar
    26    30    31   ar
    27    31    32   ar
    28     7     8    1
    29     8     9    1
    30    16    11   ar
    31     9     4    1
    32    32    21    1
    33    27    22   ar
    34    32    28   ar
    35     3    10    1
    36    18    19    1
@<TRIPOS>MOLECULE
*****
 32 36 0 0 0
SMALL
GASTEIGER

@<TRIPOS>ATOM
      1 O          63.5614   82.7601   14.8645 O.2     1  UNL1       -0.2522
      2 C          63.4179   83.7858   13.7795 C.2     1  UNL1        0.3077
      3 N          63.1219   83.3542   12.3737 N.am    1  UNL1       -0.2681
      4 N          63.5702   85.2432   14.1003 N.am    1  UNL1       -0.2640
      5 C          63.8662   85.6748   15.5060 C.3     1  UNL1        0.0950
      6 C          64.0185   87.1322   15.8267 C.3     1  UNL1        0.0240
      7 C          63.8750   88.1579   14.7416 C.3     1  UNL1        0.0304
      8 C          63.5791   87.7263   13.3359 C.3     1  UNL1        0.0240
      9 C          63.4267   86.2689   13.0152 C.3     1  UNL1        0.0950
     10 H          63.0277   84.0274   11.6616 H       1  UNL1        0.1564
     11 C          62.9696   81.8968   12.0531 C.ar    1  UNL1        0.0516
     12 C          63.2162   81.4063   10.6572 C.ar    1  UNL1        0.0147
     13 C          63.0639   79.9489   10.3364 C.ar    1  UNL1        0.0013
     14 C          62.6649   78.9821   11.4116 C.ar    1  UNL1        0.0001
     15 C          62.4182   79.4726   12.8075 C.ar    1  UNL1        0.0013
     16 C          62.5706   80.9300   13.1282 C.ar    1  UNL1        0.0147
     17 C          64.0274   89.6153   15.0623 C.3     1  UNL1        0.1128
     18 O          63.0936   90.2705   16.0364 O.3     1  UNL1       -0.3844
     19 H          63.3283   91.2071   16.1293 H       1  UNL1        0.2103
     20 C          65.1135   90.4175   14.4089 C.3     1  UNL1        0.0564
     21 C          64.8365   91.1554   13.1327 C.3     1  UNL1        0.1119
     22 C          65.4290   92.4733   12.7299 C.ar    1  UNL1       -0.0002
     23 C          66.3997   93.3887   13.4152 C.ar    1  UNL1       -0.0024
     24 C          66.8185   94.6683   12.7540 C.ar    1  UNL1       -0.0003
     25 C          66.2666   95.0325   11.4076 C.ar    1  UNL1        0.0000
     26 C          65.2959   94.1171   10.7224 C.ar    1  UNL1        0.0012
     27 C          64.8771   92.8375   11.3835 C.ar    1  UNL1        0.0152
     28 C          63.9436   91.7446   10.9542 C.ar    1  UNL1        0.0804
     29 C          63.0255   91.2943    9.8567 C.ar    1  UNL1        0.1177
     30 N          62.4330   89.9764   10.2596 N.ar    1  UNL1       -0.2223
     31 C          62.9849   89.6123   11.6060 C.ar    1  UNL1        0.1788
     32 N          63.9185   90.7051   12.0353 N.ar    1  UNL1       -0.3069
@<TRIPOS>BOND
     1     1     2    2
     2     2     3   am
     3     3    11    1
     4    11    12   ar
     5    12    13   ar
     6    13    14   ar
     7    14    15   ar
     8    15    16   ar
     9     2     4   am
    10     4     5    1
    11     5     6    1
    12     6     7    1
    13     7    17    1
    14    17    18    1
    15    17    20    1
    16    20    21    1
    17    21    22    1
    18    22    23   ar
    19    23    24   ar
    20    24    25   ar
    21    25    26   ar
    22    26    27   ar
    23    27    28    1
    24    28    29   ar
    25    29    30   ar
    26    30    31   ar
    27    31    32   ar
    28     7     8    1
    29     8     9    1
    30    16    11   ar
    31     9     4    1
    32    32    21    1
    33    27    22   ar
    34    32    28   ar
    35     3    10    1
    36    18    19    1
@<TRIPOS>MOLECULE
*****
 32 36 0 0 0
SMALL
GASTEIGER

@<TRIPOS>ATOM
      1 O          59.3824   93.7654    2.0075 O.2     1  UNL1       -0.2522
      2 C          60.4593   92.9466    2.6553 C.2     1  UNL1        0.3077
      3 N          61.8708   93.0335    2.1553 N.am    1  UNL1       -0.2681
      4 N          60.1246   92.0408    3.8033 N.am    1  UNL1       -0.2640
      5 C          58.7131   91.9540    4.3032 C.3     1  UNL1        0.0950
      6 C          58.3785   91.0482    5.4511 C.3     1  UNL1        0.0240
      7 C          59.4554   90.2294    6.0990 C.3     1  UNL1        0.0304
      8 C          60.8669   90.3162    5.5990 C.3     1  UNL1        0.0240
      9 C          61.2015   91.2220    4.4511 C.3     1  UNL1        0.0950
     10 H          62.5776   92.4960    2.5805 H       1  UNL1        0.1564
     11 C          62.2054   93.9392    1.0074 C.ar    1  UNL1        0.0516
     12 C          62.7601   95.3080    1.2692 C.ar    1  UNL1        0.0147
     13 C          63.0947   96.2139    0.1214 C.ar    1  UNL1        0.0013
     14 C          62.8746   95.7508   -1.2883 C.ar    1  UNL1        0.0001
     15 C          62.3199   94.3818   -1.5501 C.ar    1  UNL1        0.0013
     16 C          61.9853   93.4761   -0.4022 C.ar    1  UNL1        0.0147
     17 C          59.1208   89.3236    7.2469 C.3     1  UNL1        0.1128
     18 O          58.2901   88.0961    7.0163 O.3     1  UNL1       -0.3844
     19 H          58.1679   87.6260    7.8559 H       1  UNL1        0.2103
     20 C          59.6168   89.6455    8.6255 C.3     1  UNL1        0.0564
     21 C          60.6397   88.7643    9.2792 C.3     1  UNL1        0.1119
     22 C          61.1184   87.4385    8.7662 C.ar    1  UNL1       -0.0002
     23 C          60.7576   86.6451    7.5454 C.ar    1  UNL1       -0.0024
     24 C          61.4164   85.3221    7.2891 C.ar    1  UNL1       -0.0003
     25 C          62.4360   84.7926    8.2535 C.ar    1  UNL1        0.0000
     26 C          62.7967   85.5860    9.4743 C.ar    1  UNL1        0.0012
     27 C          62.1379   86.9090    9.7306 C.ar    1  UNL1        0.0152
     28 C          62.2893   87.9075   10.8397 C.ar    1  UNL1        0.0804
     29 C          63.0130   88.1973   12.1213 C.ar    1  UNL1        0.1177
     30 N          62.5343   89.5231   12.6343 N.ar    1  UNL1       -0.2223
     31 C          61.5147   90.0526   11.6698 C.ar    1  UNL1        0.1788
     32 N          61.3633   89.0541   10.5607 N.ar    1  UNL1       -0.3069
@<TRIPOS>BOND
     1     1     2    2
     2     2     3   am
     3     3    11    1
     4    11    12   ar
     5    12    13   ar
     6    13    14   ar
     7    14    15   ar
     8    15    16   ar
     9     2     4   am
    10     4     5    1
    11     5     6    1
    12     6     7    1
    13     7    17    1
    14    17    18    1
    15    17    20    1
    16    20    21    1
    17    21    22    1
    18    22    23   ar
    19    23    24   ar
    20    24    25   ar
    21    25    26   ar
    22    26    27   ar
    23    27    28    1
    24    28    29   ar
    25    29    30   ar
    26    30    31   ar
    27    31    32   ar
    28     7     8    1
    29     8     9    1
    30    16    11   ar
    31     9     4    1
    32    32    21    1
    33    27    22   ar
    34    32    28   ar
    35     3    10    1
    36    18    19    1
