@<TRIPOS>MOLECULE
*****
 33 37 0 0 0
SMALL
GASTEIGER

@<TRIPOS>ATOM
      1 N          63.4961   88.8670   13.6191 N.3     1  UNL1       -0.2679
      2 C          63.0065   89.1788   12.2361 C.3     1  UNL1        0.0978
      3 C          63.0938   90.5799   11.7076 C.3     1  UNL1        0.0224
      4 C          62.6041   90.8916   10.3244 C.3     1  UNL1        0.0065
      5 C          62.0271   89.8023    9.4698 C.3     1  UNL1        0.0277
      6 C          61.9398   88.4012    9.9983 C.ar    1  UNL1       -0.0073
      7 C          61.3627   87.3119    9.1437 C.ar    1  UNL1       -0.0015
      8 C          61.2754   85.9108    9.6722 C.ar    1  UNL1        0.0203
      9 C          61.7650   85.5990   11.0553 C.ar    1  UNL1        0.0985
     10 N          62.3420   86.6884   11.9099 N.ar    1  UNL1       -0.2471
     11 C          62.4294   88.0895   11.3814 C.ar    1  UNL1        0.0695
     12 C          63.2998   89.8603   14.7260 C.3     1  UNL1        0.0886
     13 C          69.0686   93.5109   15.5284 C.ar    1  UNL1       -0.0003
     14 C          69.2259   92.5969   14.3495 C.ar    1  UNL1       -0.0003
     15 C          68.1036   91.6840   13.9532 C.ar    1  UNL1       -0.0045
     16 C          66.8240   91.6851   14.7359 C.ar    1  UNL1       -0.0234
     17 C          66.6667   92.5990   15.9148 C.ar    1  UNL1       -0.0103
     18 C          67.7890   93.5119   16.3110 C.ar    1  UNL1       -0.0032
     19 C          65.3870   92.6001   16.6975 C.3     1  UNL1        0.0953
     20 N          64.2647   91.6872   16.3012 N.3     1  UNL1       -0.2934
     21 C          64.4221   90.7732   15.1222 C.3     1  UNL1        0.0748
     22 C          65.7017   90.7721   14.3396 C.3     1  UNL1        0.0432
     23 H          63.4571   92.2798   16.1087 H       1  UNL1        0.1236
     24 C          64.1821   87.5620   13.8955 C.3     1  UNL1        0.0738
     25 C          63.9832   86.8746   15.2137 C.3     1  UNL1        0.0347
     26 C          64.5032   85.4828   15.4198 C.3     1  UNL1        0.0736
     27 N          63.9002   84.3370   14.6623 N.3     1  UNL1       -0.2703
     28 C          64.4651   83.9378   13.3313 C.3     1  UNL1        0.0894
     29 C          63.8621   82.7921   12.5739 C.3     1  UNL1        0.0862
     30 N          62.6942   82.0457   13.1474 N.3     1  UNL1       -0.2951
     31 C          62.1294   82.4449   14.4784 C.3     1  UNL1        0.0862
     32 C          62.7324   83.5906   15.2358 C.3     1  UNL1        0.0894
     33 H          62.9800   81.0700   13.2295 H       1  UNL1        0.1233
@<TRIPOS>BOND
     1    13    14   ar
     2    14    15   ar
     3    15    16   ar
     4    16    17   ar
     5    17    18   ar
     6    17    19    1
     7    19    20    1
     8    20    21    1
     9    21    12    1
    10    12     1    1
    11     1    24    1
    12    24    25    1
    13    25    26    1
    14    26    27    1
    15    27    28    1
    16    28    29    1
    17    29    30    1
    18    30    31    1
    19    31    32    1
    20     2     1    1
    21     2     3    1
    22     3     4    1
    23     4     5    1
    24     5     6    1
    25     6     7   ar
    26     7     8   ar
    27     8     9   ar
    28     9    10   ar
    29    10    11   ar
    30    21    22    1
    31    18    13   ar
    32    32    27    1
    33    11     2    1
    34    22    16    1
    35    11     6   ar
    36    20    23    1
    37    30    33    1
@<TRIPOS>MOLECULE
*****
 33 37 0 0 0
SMALL
GASTEIGER

@<TRIPOS>ATOM
      1 N          62.9220   90.0637   12.9856 N.3     1  UNL1       -0.2679
      2 C          63.8667   91.0738   12.4048 C.3     1  UNL1        0.0978
      3 C          63.8565   91.3492   10.9303 C.3     1  UNL1        0.0224
      4 C          64.8012   92.3593   10.3495 C.3     1  UNL1        0.0065
      5 C          65.7561   93.0939   11.2431 C.3     1  UNL1        0.0277
      6 C          65.7662   92.8185   12.7176 C.ar    1  UNL1       -0.0073
      7 C          66.7210   93.5531   13.6112 C.ar    1  UNL1       -0.0015
      8 C          66.7312   93.2777   15.0857 C.ar    1  UNL1        0.0203
      9 C          65.7866   92.2676   15.6665 C.ar    1  UNL1        0.0985
     10 N          64.8318   91.5330   14.7729 N.ar    1  UNL1       -0.2471
     11 C          64.8216   91.8085   13.2984 C.ar    1  UNL1        0.0695
     12 C          61.5242   89.9512   12.4533 C.3     1  UNL1        0.0886
     13 C          61.3605   85.3803    7.3220 C.ar    1  UNL1       -0.0003
     14 C          62.6092   85.1710    8.1263 C.ar    1  UNL1       -0.0003
     15 C          62.8916   86.0433    9.3135 C.ar    1  UNL1       -0.0045
     16 C          61.9254   87.1249    9.6962 C.ar    1  UNL1       -0.0234
     17 C          60.6768   87.3342    8.8918 C.ar    1  UNL1       -0.0103
     18 C          60.3944   86.4619    7.7047 C.ar    1  UNL1       -0.0032
     19 C          59.7106   88.4159    9.2746 C.3     1  UNL1        0.0953
     20 N          59.9930   89.2882   10.4617 N.3     1  UNL1       -0.2934
     21 C          61.2417   89.0788   11.2661 C.3     1  UNL1        0.0748
     22 C          62.2079   87.9972   10.8834 C.3     1  UNL1        0.0432
     23 H          59.2076   89.1764   11.1028 H       1  UNL1        0.1236
     24 C          63.3752   89.1662   14.0988 C.3     1  UNL1        0.0738
     25 C          64.2303   87.9712   13.7978 C.3     1  UNL1        0.0347
     26 C          64.2838   86.8248   14.7637 C.3     1  UNL1        0.0736
     27 N          63.6675   85.5069   14.3985 N.3     1  UNL1       -0.2703
     28 C          63.3843   85.1840   12.9614 C.3     1  UNL1        0.0894
     29 C          62.7679   83.8661   12.5962 C.3     1  UNL1        0.0862
     30 N          62.4348   82.8713   13.6683 N.3     1  UNL1       -0.2951
     31 C          62.7179   83.1942   15.1054 C.3     1  UNL1        0.0862
     32 C          63.3343   84.5121   15.4705 C.3     1  UNL1        0.0894
     33 H          62.9519   82.0195   13.4505 H       1  UNL1        0.1233
@<TRIPOS>BOND
     1    13    14   ar
     2    14    15   ar
     3    15    16   ar
     4    16    17   ar
     5    17    18   ar
     6    17    19    1
     7    19    20    1
     8    20    21    1
     9    21    12    1
    10    12     1    1
    11     1    24    1
    12    24    25    1
    13    25    26    1
    14    26    27    1
    15    27    28    1
    16    28    29    1
    17    29    30    1
    18    30    31    1
    19    31    32    1
    20     2     1    1
    21     2     3    1
    22     3     4    1
    23     4     5    1
    24     5     6    1
    25     6     7   ar
    26     7     8   ar
    27     8     9   ar
    28     9    10   ar
    29    10    11   ar
    30    21    22    1
    31    18    13   ar
    32    32    27    1
    33    11     2    1
    34    22    16    1
    35    11     6   ar
    36    20    23    1
    37    30    33    1
@<TRIPOS>MOLECULE
*****
 33 37 0 0 0
SMALL
GASTEIGER

@<TRIPOS>ATOM
      1 N          65.2915   92.3499   12.0576 N.3     1  UNL1       -0.2679
      2 C          66.3500   92.7084   11.0571 C.3     1  UNL1        0.0978
      3 C          67.3910   91.6992   10.6725 C.3     1  UNL1        0.0224
      4 C          68.4496   92.0577    9.6720 C.3     1  UNL1        0.0065
      5 C          68.4672   93.4253    9.0562 C.3     1  UNL1        0.0277
      6 C          67.4262   94.4345    9.4408 C.ar    1  UNL1       -0.0073
      7 C          67.4438   95.8021    8.8250 C.ar    1  UNL1       -0.0015
      8 C          66.4028   96.8113    9.2096 C.ar    1  UNL1        0.0203
      9 C          65.3442   96.4528   10.2101 C.ar    1  UNL1        0.0985
     10 N          65.3267   95.0852   10.8259 N.ar    1  UNL1       -0.2471
     11 C          66.3676   94.0760   10.4413 C.ar    1  UNL1        0.0695
     12 C          65.6321   92.2780   13.5167 C.3     1  UNL1        0.0886
     13 C          63.0368   86.8025   16.7622 C.ar    1  UNL1       -0.0003
     14 C          63.8646   86.3381   15.6008 C.ar    1  UNL1       -0.0003
     15 C          64.5492   87.3403   14.7194 C.ar    1  UNL1       -0.0045
     16 C          64.4060   88.8069   14.9994 C.ar    1  UNL1       -0.0234
     17 C          63.5782   89.2713   16.1609 C.ar    1  UNL1       -0.0103
     18 C          62.8936   88.2691   17.0423 C.ar    1  UNL1       -0.0032
     19 C          63.4350   90.7380   16.4410 C.3     1  UNL1        0.0953
     20 N          64.1196   91.7402   15.5596 N.3     1  UNL1       -0.2934
     21 C          64.9475   91.2757   14.3981 C.3     1  UNL1        0.0748
     22 C          65.0907   89.8091   14.1180 C.3     1  UNL1        0.0432
     23 H          64.7359   92.2880   16.1601 H       1  UNL1        0.1236
     24 C          63.8923   92.0634   11.5990 C.3     1  UNL1        0.0738
     25 C          63.5936   90.8012   10.8458 C.3     1  UNL1        0.0347
     26 C          62.7818   89.7171   11.4907 C.3     1  UNL1        0.0736
     27 N          61.9619   88.7895   10.6438 N.3     1  UNL1       -0.2703
     28 C          61.0316   89.3456    9.6069 C.3     1  UNL1        0.0894
     29 C          60.2117   88.4180    8.7600 C.3     1  UNL1        0.0862
     30 N          60.3222   86.9342    8.9500 N.3     1  UNL1       -0.2951
     31 C          61.2525   86.3780    9.9869 C.3     1  UNL1        0.0862
     32 C          62.0723   87.3057   10.8338 C.3     1  UNL1        0.0894
     33 H          60.6127   86.5434    8.0538 H       1  UNL1        0.1233
@<TRIPOS>BOND
     1    13    14   ar
     2    14    15   ar
     3    15    16   ar
     4    16    17   ar
     5    17    18   ar
     6    17    19    1
     7    19    20    1
     8    20    21    1
     9    21    12    1
    10    12     1    1
    11     1    24    1
    12    24    25    1
    13    25    26    1
    14    26    27    1
    15    27    28    1
    16    28    29    1
    17    29    30    1
    18    30    31    1
    19    31    32    1
    20     2     1    1
    21     2     3    1
    22     3     4    1
    23     4     5    1
    24     5     6    1
    25     6     7   ar
    26     7     8   ar
    27     8     9   ar
    28     9    10   ar
    29    10    11   ar
    30    21    22    1
    31    18    13   ar
    32    32    27    1
    33    11     2    1
    34    22    16    1
    35    11     6   ar
    36    20    23    1
    37    30    33    1
@<TRIPOS>MOLECULE
*****
 33 37 0 0 0
SMALL
GASTEIGER

@<TRIPOS>ATOM
      1 N          63.8316   89.9682   13.6664 N.3     1  UNL1       -0.2679
      2 C          64.7603   91.1147   13.9363 C.3     1  UNL1        0.0978
      3 C          65.2974   91.3353   15.3194 C.3     1  UNL1        0.0224
      4 C          66.2261   92.4819   15.5893 C.3     1  UNL1        0.0065
      5 C          66.6179   93.4078   14.4762 C.3     1  UNL1        0.0277
      6 C          66.0809   93.1872   13.0931 C.ar    1  UNL1       -0.0073
      7 C          66.4726   94.1131   11.9799 C.ar    1  UNL1       -0.0015
      8 C          65.9356   93.8926   10.5968 C.ar    1  UNL1        0.0203
      9 C          65.0068   92.7461   10.3269 C.ar    1  UNL1        0.0985
     10 N          64.6151   91.8201   11.4400 N.ar    1  UNL1       -0.2471
     11 C          65.1521   92.0407   12.8231 C.ar    1  UNL1        0.0695
     12 C          62.3863   90.2295   13.3617 C.3     1  UNL1        0.0886
     13 C          60.4091   86.7237    7.7894 C.ar    1  UNL1       -0.0003
     14 C          61.4987   85.9641    8.4864 C.ar    1  UNL1       -0.0003
     15 C          62.1120   86.5134    9.7402 C.ar    1  UNL1       -0.0045
     16 C          61.6358   87.8222   10.2971 C.ar    1  UNL1       -0.0234
     17 C          60.5462   88.5818    9.6001 C.ar    1  UNL1       -0.0103
     18 C          59.9329   88.0325    8.3463 C.ar    1  UNL1       -0.0032
     19 C          60.0699   89.8906   10.1570 C.3     1  UNL1        0.0953
     20 N          60.6833   90.4399   11.4109 N.3     1  UNL1       -0.2934
     21 C          61.7729   89.6802   12.1078 C.3     1  UNL1        0.0748
     22 C          62.2492   88.3714   11.5510 C.3     1  UNL1        0.0432
     23 H          59.9256   90.5525   12.0844 H       1  UNL1        0.1236
     24 C          64.3481   88.5603   13.7011 C.3     1  UNL1        0.0738
     25 C          64.1560   87.7210   14.9293 C.3     1  UNL1        0.0347
     26 C          64.8502   86.3967   15.0489 C.3     1  UNL1        0.0736
     27 N          64.1229   85.1338   14.6935 N.3     1  UNL1       -0.2703
     28 C          64.5448   84.3373   13.4946 C.3     1  UNL1        0.0894
     29 C          63.8175   83.0745   13.1393 C.3     1  UNL1        0.0862
     30 N          62.6683   82.6082   13.9829 N.3     1  UNL1       -0.2951
     31 C          62.2463   83.4047   15.1818 C.3     1  UNL1        0.0862
     32 C          62.9736   84.6675   15.5371 C.3     1  UNL1        0.0894
     33 H          62.9089   81.6756   14.3188 H       1  UNL1        0.1233
@<TRIPOS>BOND
     1    13    14   ar
     2    14    15   ar
     3    15    16   ar
     4    16    17   ar
     5    17    18   ar
     6    17    19    1
     7    19    20    1
     8    20    21    1
     9    21    12    1
    10    12     1    1
    11     1    24    1
    12    24    25    1
    13    25    26    1
    14    26    27    1
    15    27    28    1
    16    28    29    1
    17    29    30    1
    18    30    31    1
    19    31    32    1
    20     2     1    1
    21     2     3    1
    22     3     4    1
    23     4     5    1
    24     5     6    1
    25     6     7   ar
    26     7     8   ar
    27     8     9   ar
    28     9    10   ar
    29    10    11   ar
    30    21    22    1
    31    18    13   ar
    32    32    27    1
    33    11     2    1
    34    22    16    1
    35    11     6   ar
    36    20    23    1
    37    30    33    1
@<TRIPOS>MOLECULE
*****
 33 37 0 0 0
SMALL
GASTEIGER

@<TRIPOS>ATOM
      1 N          62.4266   89.3093   12.4979 N.3     1  UNL1       -0.2679
      2 C          63.3505   90.1246   13.3532 C.3     1  UNL1        0.0978
      3 C          63.4097   89.8852   14.8328 C.3     1  UNL1        0.0224
      4 C          64.3337   90.7006   15.6881 C.3     1  UNL1        0.0065
      5 C          65.1984   91.7553   15.0638 C.3     1  UNL1        0.0277
      6 C          65.1392   91.9948   13.5842 C.ar    1  UNL1       -0.0073
      7 C          66.0040   93.0495   12.9599 C.ar    1  UNL1       -0.0015
      8 C          65.9448   93.2889   11.4804 C.ar    1  UNL1        0.0203
      9 C          65.0208   92.4736   10.6251 C.ar    1  UNL1        0.0985
     10 N          64.1561   91.4188   11.2493 N.ar    1  UNL1       -0.2471
     11 C          64.2153   91.1794   12.7289 C.ar    1  UNL1        0.0695
     12 C          62.9535   88.1260   11.7414 C.3     1  UNL1        0.0886
     13 C          63.2601   81.5907   13.8498 C.ar    1  UNL1       -0.0003
     14 C          62.6651   81.6352   12.4736 C.ar    1  UNL1       -0.0003
     15 C          62.4848   82.9512   11.7766 C.ar    1  UNL1       -0.0045
     16 C          62.8995   84.2226   12.4559 C.ar    1  UNL1       -0.0234
     17 C          63.4944   84.1781   13.8321 C.ar    1  UNL1       -0.0103
     18 C          63.6747   82.8621   14.5291 C.ar    1  UNL1       -0.0032
     19 C          63.9091   85.4495   14.5115 C.3     1  UNL1        0.0953
     20 N          63.7288   86.7655   13.8146 N.3     1  UNL1       -0.2934
     21 C          63.1338   86.8100   12.4383 C.3     1  UNL1        0.0748
     22 C          62.7192   85.5386   11.7590 C.3     1  UNL1        0.0432
     23 H          64.6524   87.1935   13.7501 H       1  UNL1        0.1236
     24 C          60.9758   89.6773   12.3991 C.3     1  UNL1        0.0738
     25 C          60.4461   90.3097   11.1463 C.3     1  UNL1        0.0347
     26 C          61.0358   89.9467    9.8157 C.3     1  UNL1        0.0736
     27 N          60.3809   88.8982    8.9660 N.3     1  UNL1       -0.2703
     28 C          59.5481   89.3019    7.7856 C.3     1  UNL1        0.0894
     29 C          58.8933   88.2535    6.9360 C.3     1  UNL1        0.0862
     30 N          59.0712   86.8013    7.2668 N.3     1  UNL1       -0.2951
     31 C          59.9039   86.3975    8.4472 C.3     1  UNL1        0.0862
     32 C          60.5588   87.4460    9.2968 C.3     1  UNL1        0.0894
     33 H          59.4897   86.3617    6.4471 H       1  UNL1        0.1233
@<TRIPOS>BOND
     1    13    14   ar
     2    14    15   ar
     3    15    16   ar
     4    16    17   ar
     5    17    18   ar
     6    17    19    1
     7    19    20    1
     8    20    21    1
     9    21    12    1
    10    12     1    1
    11     1    24    1
    12    24    25    1
    13    25    26    1
    14    26    27    1
    15    27    28    1
    16    28    29    1
    17    29    30    1
    18    30    31    1
    19    31    32    1
    20     2     1    1
    21     2     3    1
    22     3     4    1
    23     4     5    1
    24     5     6    1
    25     6     7   ar
    26     7     8   ar
    27     8     9   ar
    28     9    10   ar
    29    10    11   ar
    30    21    22    1
    31    18    13   ar
    32    32    27    1
    33    11     2    1
    34    22    16    1
    35    11     6   ar
    36    20    23    1
    37    30    33    1
@<TRIPOS>MOLECULE
*****
 33 37 0 0 0
SMALL
GASTEIGER

@<TRIPOS>ATOM
      1 N          63.1008   85.1196   12.8424 N.3     1  UNL1       -0.2679
      2 C          63.3039   83.8610   12.0521 C.3     1  UNL1        0.0978
      3 C          64.0088   83.9116   10.7291 C.3     1  UNL1        0.0224
      4 C          64.2119   82.6529    9.9388 C.3     1  UNL1        0.0065
      5 C          63.7100   81.3436   10.4716 C.3     1  UNL1        0.0277
      6 C          63.0050   81.2930   11.7947 C.ar    1  UNL1       -0.0073
      7 C          62.5031   79.9838   12.3275 C.ar    1  UNL1       -0.0015
      8 C          61.7982   79.9332   13.6505 C.ar    1  UNL1        0.0203
      9 C          61.5951   81.1918   14.4408 C.ar    1  UNL1        0.0985
     10 N          62.0970   82.5011   13.9080 N.ar    1  UNL1       -0.2471
     11 C          62.8020   82.5517   12.5849 C.ar    1  UNL1        0.0695
     12 C          63.8996   85.3596   14.0892 C.3     1  UNL1        0.0886
     13 C          64.2190   91.8909   16.2082 C.ar    1  UNL1       -0.0003
     14 C          64.8881   91.7753   14.8707 C.ar    1  UNL1       -0.0003
     15 C          64.9580   90.4460   14.1794 C.ar    1  UNL1       -0.0045
     16 C          64.3589   89.2321   14.8256 C.ar    1  UNL1       -0.0234
     17 C          63.6898   89.3477   16.1631 C.ar    1  UNL1       -0.0103
     18 C          63.6199   90.6770   16.8544 C.ar    1  UNL1       -0.0032
     19 C          63.0906   88.1338   16.8093 C.3     1  UNL1        0.0953
     20 N          63.1606   86.8044   16.1180 N.3     1  UNL1       -0.2934
     21 C          63.8297   86.6889   14.7805 C.3     1  UNL1        0.0748
     22 C          64.4288   87.9028   14.1343 C.3     1  UNL1        0.0432
     23 H          62.1995   86.4856   15.9950 H       1  UNL1        0.1236
     24 C          62.0989   86.1384   12.3859 C.3     1  UNL1        0.0738
     25 C          62.3923   86.9956   11.1905 C.3     1  UNL1        0.0347
     26 C          61.4422   88.0886   10.7999 C.3     1  UNL1        0.0736
     27 N          60.6335   87.9657    9.5425 N.3     1  UNL1       -0.2703
     28 C          60.2258   89.1973    8.7896 C.3     1  UNL1        0.0894
     29 C          59.4172   89.0743    7.5323 C.3     1  UNL1        0.0862
     30 N          59.0163   87.7198    7.0278 N.3     1  UNL1       -0.2951
     31 C          59.4241   86.4882    7.7807 C.3     1  UNL1        0.0862
     32 C          60.2327   86.6111    9.0380 C.3     1  UNL1        0.0894
     33 H          59.4003   87.6304    6.0871 H       1  UNL1        0.1233
@<TRIPOS>BOND
     1    13    14   ar
     2    14    15   ar
     3    15    16   ar
     4    16    17   ar
     5    17    18   ar
     6    17    19    1
     7    19    20    1
     8    20    21    1
     9    21    12    1
    10    12     1    1
    11     1    24    1
    12    24    25    1
    13    25    26    1
    14    26    27    1
    15    27    28    1
    16    28    29    1
    17    29    30    1
    18    30    31    1
    19    31    32    1
    20     2     1    1
    21     2     3    1
    22     3     4    1
    23     4     5    1
    24     5     6    1
    25     6     7   ar
    26     7     8   ar
    27     8     9   ar
    28     9    10   ar
    29    10    11   ar
    30    21    22    1
    31    18    13   ar
    32    32    27    1
    33    11     2    1
    34    22    16    1
    35    11     6   ar
    36    20    23    1
    37    30    33    1
@<TRIPOS>MOLECULE
*****
 33 37 0 0 0
SMALL
GASTEIGER

@<TRIPOS>ATOM
      1 N          63.4951   90.5285   11.7388 N.3     1  UNL1       -0.2679
      2 C          64.4795   91.6601   11.7611 C.3     1  UNL1        0.0978
      3 C          64.8250   92.3787   10.4906 C.3     1  UNL1        0.0224
      4 C          65.8094   93.5103   10.5129 C.3     1  UNL1        0.0065
      5 C          66.4483   93.9232   11.8057 C.3     1  UNL1        0.0277
      6 C          66.1028   93.2046   13.0762 C.ar    1  UNL1       -0.0073
      7 C          66.7416   93.6175   14.3690 C.ar    1  UNL1       -0.0015
      8 C          66.3961   92.8988   15.6395 C.ar    1  UNL1        0.0203
      9 C          65.4117   91.7673   15.6172 C.ar    1  UNL1        0.0985
     10 N          64.7729   91.3544   14.3244 N.ar    1  UNL1       -0.2471
     11 C          65.1184   92.0730   13.0539 C.ar    1  UNL1        0.0695
     12 C          63.0504   89.8958   13.0241 C.3     1  UNL1        0.0886
     13 C          63.9734   83.0885   13.2666 C.ar    1  UNL1       -0.0003
     14 C          63.1623   83.4311   12.0523 C.ar    1  UNL1       -0.0003
     15 C          62.8155   84.8611   11.7609 C.ar    1  UNL1       -0.0045
     16 C          63.2798   85.9485   12.6839 C.ar    1  UNL1       -0.0234
     17 C          64.0909   85.6059   13.8983 C.ar    1  UNL1       -0.0103
     18 C          64.4377   84.1759   14.1896 C.ar    1  UNL1       -0.0032
     19 C          64.5552   86.6933   14.8213 C.3     1  UNL1        0.0953
     20 N          64.2084   88.1233   14.5300 N.3     1  UNL1       -0.2934
     21 C          63.3972   88.4659   13.3155 C.3     1  UNL1        0.0748
     22 C          62.9329   87.3785   12.3925 C.3     1  UNL1        0.0432
     23 H          65.0902   88.6292   14.4474 H       1  UNL1        0.1236
     24 C          62.9554   90.0296   10.4312 C.3     1  UNL1        0.0738
     25 C          61.5096   90.2357   10.0890 C.3     1  UNL1        0.0347
     26 C          60.5170   89.1380   10.3336 C.3     1  UNL1        0.0736
     27 N          60.3858   88.0127    9.3504 N.3     1  UNL1       -0.2703
     28 C          61.5110   87.0367    9.1729 C.3     1  UNL1        0.0894
     29 C          61.3797   85.9116    8.1898 C.3     1  UNL1        0.0862
     30 N          60.1233   85.7623    7.3841 N.3     1  UNL1       -0.2951
     31 C          58.9982   86.7382    7.5615 C.3     1  UNL1        0.0862
     32 C          59.1294   87.8634    8.5447 C.3     1  UNL1        0.0894
     33 H          59.7470   84.8378    7.5939 H       1  UNL1        0.1233
@<TRIPOS>BOND
     1    13    14   ar
     2    14    15   ar
     3    15    16   ar
     4    16    17   ar
     5    17    18   ar
     6    17    19    1
     7    19    20    1
     8    20    21    1
     9    21    12    1
    10    12     1    1
    11     1    24    1
    12    24    25    1
    13    25    26    1
    14    26    27    1
    15    27    28    1
    16    28    29    1
    17    29    30    1
    18    30    31    1
    19    31    32    1
    20     2     1    1
    21     2     3    1
    22     3     4    1
    23     4     5    1
    24     5     6    1
    25     6     7   ar
    26     7     8   ar
    27     8     9   ar
    28     9    10   ar
    29    10    11   ar
    30    21    22    1
    31    18    13   ar
    32    32    27    1
    33    11     2    1
    34    22    16    1
    35    11     6   ar
    36    20    23    1
    37    30    33    1
@<TRIPOS>MOLECULE
*****
 33 37 0 0 0
SMALL
GASTEIGER

@<TRIPOS>ATOM
      1 N          61.8020   87.7929   11.0283 N.3     1  UNL1       -0.2679
      2 C          60.9572   87.4198    9.8464 C.3     1  UNL1        0.0978
      3 C          59.5983   88.0308    9.6730 C.3     1  UNL1        0.0224
      4 C          58.7535   87.6577    8.4909 C.3     1  UNL1        0.0065
      5 C          59.2676   86.6736    7.4824 C.3     1  UNL1        0.0277
      6 C          60.6265   86.0626    7.6558 C.ar    1  UNL1       -0.0073
      7 C          61.1406   85.0785    6.6472 C.ar    1  UNL1       -0.0015
      8 C          62.4995   84.4675    6.8207 C.ar    1  UNL1        0.0203
      9 C          63.3443   84.8406    8.0026 C.ar    1  UNL1        0.0985
     10 N          62.8302   85.8247    9.0112 N.ar    1  UNL1       -0.2471
     11 C          61.4713   86.4357    8.8378 C.ar    1  UNL1        0.0695
     12 C          61.6978   89.1670   11.6209 C.3     1  UNL1        0.0886
     13 C          67.0159   92.6675   14.2122 C.ar    1  UNL1       -0.0003
     14 C          66.5843   93.3101   12.9273 C.ar    1  UNL1       -0.0003
     15 C          65.4344   92.7385   12.1521 C.ar    1  UNL1       -0.0045
     16 C          64.7160   91.5243   12.6617 C.ar    1  UNL1       -0.0234
     17 C          65.1476   90.8818   13.9466 C.ar    1  UNL1       -0.0103
     18 C          66.2975   91.4534   14.7218 C.ar    1  UNL1       -0.0032
     19 C          64.4292   89.6676   14.4563 C.3     1  UNL1        0.0953
     20 N          63.2792   89.0960   13.6810 N.3     1  UNL1       -0.2934
     21 C          62.8477   89.7386   12.3961 C.3     1  UNL1        0.0748
     22 C          63.5661   90.9527   11.8865 C.3     1  UNL1        0.0432
     23 H          62.4704   89.1078   14.3023 H       1  UNL1        0.1236
     24 C          62.7510   86.7919   11.6178 C.3     1  UNL1        0.0738
     25 C          62.2195   85.5896   12.3403 C.3     1  UNL1        0.0347
     26 C          63.1650   84.6460   13.0226 C.3     1  UNL1        0.0736
     27 N          62.8590   83.1781   13.0653 N.3     1  UNL1       -0.2703
     28 C          63.2623   82.2943   11.9225 C.3     1  UNL1        0.0894
     29 C          62.9562   80.8265   11.9653 C.3     1  UNL1        0.0862
     30 N          62.2468   80.2425   13.1510 N.3     1  UNL1       -0.2951
     31 C          61.8435   81.1264   14.2938 C.3     1  UNL1        0.0862
     32 C          62.1496   82.5941   14.2510 C.3     1  UNL1        0.0894
     33 H          62.8598   79.5241   13.5364 H       1  UNL1        0.1233
@<TRIPOS>BOND
     1    13    14   ar
     2    14    15   ar
     3    15    16   ar
     4    16    17   ar
     5    17    18   ar
     6    17    19    1
     7    19    20    1
     8    20    21    1
     9    21    12    1
    10    12     1    1
    11     1    24    1
    12    24    25    1
    13    25    26    1
    14    26    27    1
    15    27    28    1
    16    28    29    1
    17    29    30    1
    18    30    31    1
    19    31    32    1
    20     2     1    1
    21     2     3    1
    22     3     4    1
    23     4     5    1
    24     5     6    1
    25     6     7   ar
    26     7     8   ar
    27     8     9   ar
    28     9    10   ar
    29    10    11   ar
    30    21    22    1
    31    18    13   ar
    32    32    27    1
    33    11     2    1
    34    22    16    1
    35    11     6   ar
    36    20    23    1
    37    30    33    1
@<TRIPOS>MOLECULE
*****
 33 37 0 0 0
SMALL
GASTEIGER

@<TRIPOS>ATOM
      1 N          64.5679   90.6585   13.0915 N.3     1  UNL1       -0.2679
      2 C          64.9032   91.2597   14.4242 C.3     1  UNL1        0.0978
      3 C          63.8451   91.3789   15.4807 C.3     1  UNL1        0.0224
      4 C          64.1805   91.9802   16.8135 C.3     1  UNL1        0.0065
      5 C          65.5738   92.4622   17.0896 C.3     1  UNL1        0.0277
      6 C          66.6318   92.3431   16.0330 C.ar    1  UNL1       -0.0073
      7 C          68.0251   92.8251   16.3091 C.ar    1  UNL1       -0.0015
      8 C          69.0831   92.7060   15.2526 C.ar    1  UNL1        0.0203
      9 C          68.7479   92.1047   13.9199 C.ar    1  UNL1        0.0985
     10 N          67.3546   91.6226   13.6438 N.ar    1  UNL1       -0.2471
     11 C          66.2966   91.7418   14.7004 C.ar    1  UNL1        0.0695
     12 C          63.7166   89.4256   13.0177 C.3     1  UNL1        0.0886
     13 C          59.6563   87.4718    7.8267 C.ar    1  UNL1       -0.0003
     14 C          60.5471   86.3277    8.2108 C.ar    1  UNL1       -0.0003
     15 C          61.5373   86.4896    9.3258 C.ar    1  UNL1       -0.0045
     16 C          61.6367   87.7957   10.0567 C.ar    1  UNL1       -0.0234
     17 C          60.7460   88.9397    9.6726 C.ar    1  UNL1       -0.0103
     18 C          59.7558   88.7778    8.5576 C.ar    1  UNL1       -0.0032
     19 C          60.8454   90.2459   10.4036 C.3     1  UNL1        0.0953
     20 N          61.8356   90.4078   11.5186 N.3     1  UNL1       -0.2934
     21 C          62.7264   89.2637   11.9027 C.3     1  UNL1        0.0748
     22 C          62.6269   87.9576   11.1717 C.3     1  UNL1        0.0432
     23 H          61.3028   90.6586   12.3515 H       1  UNL1        0.1236
     24 C          65.0840   91.2900   11.8326 C.3     1  UNL1        0.0738
     25 C          64.7628   92.7227   11.5260 C.3     1  UNL1        0.0347
     26 C          65.7641   93.7975   11.8301 C.3     1  UNL1        0.0736
     27 N          66.3904   94.5771   10.7119 N.3     1  UNL1       -0.2703
     28 C          67.0070   93.8574    9.5493 C.3     1  UNL1        0.0894
     29 C          67.6332   94.6370    8.4313 C.3     1  UNL1        0.0862
     30 N          67.6428   96.1363    8.4759 N.3     1  UNL1       -0.2951
     31 C          67.0262   96.8560    9.6385 C.3     1  UNL1        0.0862
     32 C          66.4000   96.0764   10.7566 C.3     1  UNL1        0.0894
     33 H          67.1573   96.4589    7.6389 H       1  UNL1        0.1233
@<TRIPOS>BOND
     1    13    14   ar
     2    14    15   ar
     3    15    16   ar
     4    16    17   ar
     5    17    18   ar
     6    17    19    1
     7    19    20    1
     8    20    21    1
     9    21    12    1
    10    12     1    1
    11     1    24    1
    12    24    25    1
    13    25    26    1
    14    26    27    1
    15    27    28    1
    16    28    29    1
    17    29    30    1
    18    30    31    1
    19    31    32    1
    20     2     1    1
    21     2     3    1
    22     3     4    1
    23     4     5    1
    24     5     6    1
    25     6     7   ar
    26     7     8   ar
    27     8     9   ar
    28     9    10   ar
    29    10    11   ar
    30    21    22    1
    31    18    13   ar
    32    32    27    1
    33    11     2    1
    34    22    16    1
    35    11     6   ar
    36    20    23    1
    37    30    33    1
