@<TRIPOS>MOLECULE
*****
 38 42 0 0 0
SMALL
GASTEIGER

@<TRIPOS>ATOM
      1 N          64.2335   91.6177   12.4414 N.am    1  UNL1       -0.3045
      2 C          63.6525   90.3584   13.0130 C.2     1  UNL1        0.2244
      3 O          64.5470   89.3530   13.6756 O.2     1  UNL1       -0.2750
      4 H          63.6463   92.2775   12.0065 H       1  UNL1        0.1494
      5 C          65.7090   91.8715   12.5324 C.3     1  UNL1        0.0874
      6 C          66.3419   92.1475   13.8640 C.3     1  UNL1        0.0194
      7 C          65.4877   92.2569   15.0921 C.3     1  UNL1        0.0017
      8 C          66.1205   92.5329   16.4238 C.3     1  UNL1        0.0001
      9 C          67.6076   92.6994   16.5274 C.3     1  UNL1        0.0000
     10 C          68.4619   92.5899   15.2992 C.3     1  UNL1        0.0001
     11 C          67.8290   92.3140   13.9676 C.3     1  UNL1        0.0017
     12 C          66.5518   91.8495   11.2916 C.3     1  UNL1        0.0919
     13 C          67.2670   96.8550    8.0615 C.3     1  UNL1        0.0897
     14 N          67.0882   95.6036    8.8691 N.3     1  UNL1       -0.2691
     15 C          67.8447   94.3608    8.5038 C.3     1  UNL1        0.0897
     16 C          67.6658   93.1095    9.3114 C.3     1  UNL1        0.0897
     17 N          66.7306   93.1009   10.4840 N.3     1  UNL1       -0.2689
     18 C          65.9741   94.3436   10.8493 C.3     1  UNL1        0.0897
     19 C          66.1529   95.5950   10.0417 C.3     1  UNL1        0.0897
     20 C          62.1770   90.1045   12.9221 C.3     1  UNL1        0.1093
     21 C          61.5713   89.6583   11.6244 C.3     1  UNL1        0.1142
     22 C          60.7889   90.6280   10.7892 C.3     1  UNL1        0.1127
     23 N          60.1833   90.1818    9.4915 N.am    1  UNL1       -0.2978
     24 C          60.3600   88.7659    9.0289 C.2     1  UNL1        0.2618
     25 O          59.7542   88.3197    7.7312 O.2     1  UNL1       -0.2686
     26 C          61.1423   87.7962    9.8641 C.ar    1  UNL1        0.1140
     27 C          61.4818   86.3484    9.6677 C.ar    1  UNL1        0.0233
     28 C          62.2972   85.8998   10.8440 C.ar    1  UNL1        0.0188
     29 C          62.4618   87.0703   11.7674 C.ar    1  UNL1        0.0760
     30 N          61.7480   88.2424   11.1618 N.ar    1  UNL1       -0.3222
     31 H          59.6698   90.8183    8.9434 H       1  UNL1        0.1498
     32 C          62.8510   84.5224   11.0592 C.ar    1  UNL1        0.0023
     33 C          63.5721   83.8217    9.9461 C.ar    1  UNL1        0.0001
     34 C          64.1258   82.4443   10.1614 C.ar    1  UNL1        0.0009
     35 C          63.9584   81.7677   11.4896 C.ar    1  UNL1        0.0114
     36 C          63.2372   82.4684   12.6026 C.ar    1  UNL1        0.0577
     37 CL         63.0698   81.7919   13.9308 Cl      1  UNL1       -0.0822
     38 C          62.6835   83.8458   12.3874 C.ar    1  UNL1        0.0114
@<TRIPOS>BOND
     1    13    14    1
     2    14    15    1
     3    15    16    1
     4    16    17    1
     5    17    12    1
     6     5    12    1
     7     5     1    1
     8     1     2   am
     9     2     3    2
    10     2    20    1
    11    21    20    1
    12    21    22    1
    13    22    23    1
    14    23    24   am
    15    24    25    2
    16    24    26    1
    17    26    27   ar
    18    27    28   ar
    19    28    32    1
    20    32    33   ar
    21    33    34   ar
    22    34    35   ar
    23    35    36   ar
    24    36    37    1
    25    36    38   ar
    26    28    29   ar
    27    29    30   ar
    28     5     6    1
    29     6     7    1
    30     7     8    1
    31     8     9    1
    32     9    10    1
    33    10    11    1
    34    17    18    1
    35    18    19    1
    36    19    14    1
    37    30    21    1
    38    11     6    1
    39    30    26   ar
    40    38    32   ar
    41     1     4    1
    42    23    31    1
@<TRIPOS>MOLECULE
*****
 38 42 0 0 0
SMALL
GASTEIGER

@<TRIPOS>ATOM
      1 N          63.9917   90.1312   12.9328 N.am    1  UNL1       -0.3045
      2 C          62.6468   90.0693   12.2714 C.2     1  UNL1        0.2244
      3 O          61.4111   89.8806   13.1006 O.2     1  UNL1       -0.2750
      4 H          64.8027   90.2551   12.3885 H       1  UNL1        0.1494
      5 C          64.1010   90.0043   14.4234 C.3     1  UNL1        0.0874
      6 C          63.9002   88.6703   15.0793 C.3     1  UNL1        0.0194
      7 C          64.3948   87.4230   14.4089 C.3     1  UNL1        0.0017
      8 C          64.1940   86.0890   15.0648 C.3     1  UNL1        0.0001
      9 C          63.4987   86.0024   16.3911 C.3     1  UNL1        0.0000
     10 C          63.0042   87.2499   17.0614 C.3     1  UNL1        0.0001
     11 C          63.2049   88.5838   16.4056 C.3     1  UNL1        0.0017
     12 C          64.4111   91.2115   15.2581 C.3     1  UNL1        0.0919
     13 C          69.9642   93.4831   15.3012 C.3     1  UNL1        0.0897
     14 N          68.5759   92.9152   15.2904 N.3     1  UNL1       -0.2691
     15 C          67.6312   93.2225   16.4143 C.3     1  UNL1        0.0897
     16 C          66.2429   92.6546   16.4035 C.3     1  UNL1        0.0897
     17 N          65.7994   91.7794   15.2689 N.3     1  UNL1       -0.2689
     18 C          66.7441   91.4721   14.1451 C.3     1  UNL1        0.0897
     19 C          68.1325   92.0400   14.1558 C.3     1  UNL1        0.0897
     20 C          62.5375   90.1962   10.7808 C.3     1  UNL1        0.1093
     21 C          61.5902   89.3160   10.0206 C.3     1  UNL1        0.1142
     22 C          60.5575   89.9268    9.1204 C.3     1  UNL1        0.1127
     23 N          59.6103   89.0466    8.3602 N.am    1  UNL1       -0.2978
     24 C          59.6956   87.5556    8.5002 C.2     1  UNL1        0.2618
     25 O          58.7483   86.6754    7.7399 O.2     1  UNL1       -0.2686
     26 C          60.7283   86.9448    9.4004 C.ar    1  UNL1        0.1140
     27 C          61.0495   85.5187    9.7367 C.ar    1  UNL1        0.0233
     28 C          62.1953   85.5175   10.7048 C.ar    1  UNL1        0.0188
     29 C          62.5823   86.9429   10.9668 C.ar    1  UNL1        0.0760
     30 N          61.6756   87.8250   10.1606 N.ar    1  UNL1       -0.3222
     31 H          58.9325   89.4476    7.7693 H       1  UNL1        0.1498
     32 C          62.8409   84.3041   11.3054 C.ar    1  UNL1        0.0023
     33 C          63.7284   83.4336   10.4659 C.ar    1  UNL1        0.0001
     34 C          64.3739   82.2201   11.0666 C.ar    1  UNL1        0.0009
     35 C          64.1320   81.8771   12.5067 C.ar    1  UNL1        0.0114
     36 C          63.2445   82.7476   13.3462 C.ar    1  UNL1        0.0577
     37 CL         63.0026   82.4046   14.7862 Cl      1  UNL1       -0.0822
     38 C          62.5990   83.9611   12.7454 C.ar    1  UNL1        0.0114
@<TRIPOS>BOND
     1    13    14    1
     2    14    15    1
     3    15    16    1
     4    16    17    1
     5    17    12    1
     6     5    12    1
     7     5     1    1
     8     1     2   am
     9     2     3    2
    10     2    20    1
    11    21    20    1
    12    21    22    1
    13    22    23    1
    14    23    24   am
    15    24    25    2
    16    24    26    1
    17    26    27   ar
    18    27    28   ar
    19    28    32    1
    20    32    33   ar
    21    33    34   ar
    22    34    35   ar
    23    35    36   ar
    24    36    37    1
    25    36    38   ar
    26    28    29   ar
    27    29    30   ar
    28     5     6    1
    29     6     7    1
    30     7     8    1
    31     8     9    1
    32     9    10    1
    33    10    11    1
    34    17    18    1
    35    18    19    1
    36    19    14    1
    37    30    21    1
    38    11     6    1
    39    30    26   ar
    40    38    32   ar
    41     1     4    1
    42    23    31    1
@<TRIPOS>MOLECULE
*****
 38 42 0 0 0
SMALL
GASTEIGER

@<TRIPOS>ATOM
      1 N          62.9702   91.0115   12.8258 N.am    1  UNL1       -0.3045
      2 C          62.5345   90.4226   11.5168 C.2     1  UNL1        0.2244
      3 O          63.5512   90.1125   10.4584 O.2     1  UNL1       -0.2750
      4 H          62.3029   91.2151   13.5204 H       1  UNL1        0.1494
      5 C          64.4226   91.2902   13.0764 C.3     1  UNL1        0.0874
      6 C          65.1043   92.4183   12.3603 C.3     1  UNL1        0.0194
      7 C          65.8411   93.4660   13.1410 C.3     1  UNL1        0.0017
      8 C          66.5227   94.5940   12.4248 C.3     1  UNL1        0.0001
      9 C          66.4676   94.6744   10.9280 C.3     1  UNL1        0.0000
     10 C          65.7308   93.6266   10.1474 C.3     1  UNL1        0.0001
     11 C          65.0492   92.4987   10.8635 C.3     1  UNL1        0.0017
     12 C          65.1934   90.4408   14.0431 C.3     1  UNL1        0.0919
     13 C          62.3257   86.4244   17.4555 C.3     1  UNL1        0.0897
     14 N          63.0426   87.4285   16.6024 N.3     1  UNL1       -0.2691
     15 C          63.8557   86.9706   15.4280 C.3     1  UNL1        0.0897
     16 C          64.5727   87.9747   14.5750 C.3     1  UNL1        0.0897
     17 N          64.4764   89.4367   14.8963 N.3     1  UNL1       -0.2689
     18 C          63.6633   89.8947   16.0706 C.3     1  UNL1        0.0897
     19 C          62.9463   88.8905   16.9237 C.3     1  UNL1        0.0897
     20 C          61.0821   90.1439   11.2662 C.3     1  UNL1        0.1093
     21 C          60.6781   89.1807   10.1897 C.3     1  UNL1        0.1142
     22 C          59.8185   89.6453    9.0516 C.3     1  UNL1        0.1127
     23 N          59.4144   88.6822    7.9751 N.am    1  UNL1       -0.2978
     24 C          59.8701   87.2543    8.0365 C.2     1  UNL1        0.2618
     25 O          59.4660   86.2911    6.9599 O.2     1  UNL1       -0.2686
     26 C          60.7297   86.7897    9.1745 C.ar    1  UNL1        0.1140
     27 C          61.3270   85.4529    9.5005 C.ar    1  UNL1        0.0233
     28 C          62.1003   85.5900   10.7785 C.ar    1  UNL1        0.0188
     29 C          61.9808   87.0114   11.2424 C.ar    1  UNL1        0.0760
     30 N          61.1337   87.7529   10.2511 N.ar    1  UNL1       -0.3222
     31 H          58.8502   88.9871    7.2282 H       1  UNL1        0.1498
     32 C          62.8596   84.4974   11.4710 C.ar    1  UNL1        0.0023
     33 C          63.6092   83.4781   10.6654 C.ar    1  UNL1        0.0001
     34 C          64.3686   82.3855   11.3581 C.ar    1  UNL1        0.0009
     35 C          64.3784   82.3123   12.8563 C.ar    1  UNL1        0.0114
     36 C          63.6288   83.3316   13.6619 C.ar    1  UNL1        0.0577
     37 CL         63.6386   83.2585   15.1600 Cl      1  UNL1       -0.0822
     38 C          62.8694   84.4242   12.9692 C.ar    1  UNL1        0.0114
@<TRIPOS>BOND
     1    13    14    1
     2    14    15    1
     3    15    16    1
     4    16    17    1
     5    17    12    1
     6     5    12    1
     7     5     1    1
     8     1     2   am
     9     2     3    2
    10     2    20    1
    11    21    20    1
    12    21    22    1
    13    22    23    1
    14    23    24   am
    15    24    25    2
    16    24    26    1
    17    26    27   ar
    18    27    28   ar
    19    28    32    1
    20    32    33   ar
    21    33    34   ar
    22    34    35   ar
    23    35    36   ar
    24    36    37    1
    25    36    38   ar
    26    28    29   ar
    27    29    30   ar
    28     5     6    1
    29     6     7    1
    30     7     8    1
    31     8     9    1
    32     9    10    1
    33    10    11    1
    34    17    18    1
    35    18    19    1
    36    19    14    1
    37    30    21    1
    38    11     6    1
    39    30    26   ar
    40    38    32   ar
    41     1     4    1
    42    23    31    1
@<TRIPOS>MOLECULE
*****
 38 42 0 0 0
SMALL
GASTEIGER

@<TRIPOS>ATOM
      1 N          62.2345   87.2071   11.9736 N.am    1  UNL1       -0.3045
      2 C          62.4314   88.5979   11.4475 C.2     1  UNL1        0.2244
      3 O          63.0420   88.8082   10.0936 O.2     1  UNL1       -0.2750
      4 H          61.8337   87.0691   12.8622 H       1  UNL1        0.1494
      5 C          62.6481   86.0265   11.1459 C.3     1  UNL1        0.0874
      6 C          62.0824   85.8407    9.7691 C.3     1  UNL1        0.0194
      7 C          60.6862   86.2964    9.4642 C.3     1  UNL1        0.0017
      8 C          60.1205   86.1106    8.0874 C.3     1  UNL1        0.0001
      9 C          60.9510   85.4690    7.0156 C.3     1  UNL1        0.0000
     10 C          62.3472   85.0133    7.3207 C.3     1  UNL1        0.0001
     11 C          62.9128   85.1991    8.6973 C.3     1  UNL1        0.0017
     12 C          63.6275   85.0318   11.6949 C.3     1  UNL1        0.0919
     13 C          61.6752   79.8090   13.9110 C.3     1  UNL1        0.0897
     14 N          62.1633   81.1147   13.3570 N.3     1  UNL1       -0.2691
     15 C          62.7452   81.1727   11.9756 C.3     1  UNL1        0.0897
     16 C          63.2333   82.4784   11.4216 C.3     1  UNL1        0.0897
     17 N          63.1394   83.7260   12.2490 N.3     1  UNL1       -0.2689
     18 C          62.5575   83.6682   13.6302 C.3     1  UNL1        0.0897
     19 C          62.0694   82.3624   14.1843 C.3     1  UNL1        0.0897
     20 C          62.0178   89.7785   12.2752 C.3     1  UNL1        0.1093
     21 C          62.9662   90.3570   13.2832 C.3     1  UNL1        0.1142
     22 C          62.8077   90.0270   14.7378 C.3     1  UNL1        0.1127
     23 N          63.7560   90.6054   15.7457 N.am    1  UNL1       -0.2978
     24 C          64.8629   91.5140   15.2991 C.2     1  UNL1        0.2618
     25 O          65.8112   92.0925   16.3071 O.2     1  UNL1       -0.2686
     26 C          65.0213   91.8440   13.8444 C.ar    1  UNL1        0.1140
     27 C          66.0092   92.7029   13.1119 C.ar    1  UNL1        0.0233
     28 C          65.6713   92.6551   11.6513 C.ar    1  UNL1        0.0188
     29 C          64.4747   91.7668   11.4810 C.ar    1  UNL1        0.0760
     30 N          64.0730   91.2655   12.8365 N.ar    1  UNL1       -0.3222
     31 H          63.6520   90.3888   16.7004 H       1  UNL1        0.1498
     32 C          66.4018   93.3702   10.5535 C.ar    1  UNL1        0.0023
     33 C          67.5513   92.7025    9.8586 C.ar    1  UNL1        0.0001
     34 C          68.2817   93.4176    8.7609 C.ar    1  UNL1        0.0009
     35 C          67.8628   94.8005    8.3580 C.ar    1  UNL1        0.0114
     36 C          66.7134   95.4682    9.0529 C.ar    1  UNL1        0.0577
     37 CL         66.2944   96.8510    8.6502 Cl      1  UNL1       -0.0822
     38 C          65.9829   94.7530   10.1507 C.ar    1  UNL1        0.0114
@<TRIPOS>BOND
     1    13    14    1
     2    14    15    1
     3    15    16    1
     4    16    17    1
     5    17    12    1
     6     5    12    1
     7     5     1    1
     8     1     2   am
     9     2     3    2
    10     2    20    1
    11    21    20    1
    12    21    22    1
    13    22    23    1
    14    23    24   am
    15    24    25    2
    16    24    26    1
    17    26    27   ar
    18    27    28   ar
    19    28    32    1
    20    32    33   ar
    21    33    34   ar
    22    34    35   ar
    23    35    36   ar
    24    36    37    1
    25    36    38   ar
    26    28    29   ar
    27    29    30   ar
    28     5     6    1
    29     6     7    1
    30     7     8    1
    31     8     9    1
    32     9    10    1
    33    10    11    1
    34    17    18    1
    35    18    19    1
    36    19    14    1
    37    30    21    1
    38    11     6    1
    39    30    26   ar
    40    38    32   ar
    41     1     4    1
    42    23    31    1
@<TRIPOS>MOLECULE
*****
 38 42 0 0 0
SMALL
GASTEIGER

@<TRIPOS>ATOM
      1 N          63.5832   91.7602   11.2002 N.am    1  UNL1       -0.3045
      2 C          62.8366   90.5664   11.7174 C.2     1  UNL1        0.2244
      3 O          63.5200   89.5921   12.6305 O.2     1  UNL1       -0.2750
      4 H          63.1346   92.3997   10.6009 H       1  UNL1        0.1494
      5 C          65.0133   91.9796   11.5960 C.3     1  UNL1        0.0874
      6 C          65.8942   92.8647   10.7649 C.3     1  UNL1        0.0194
      7 C          65.5978   94.3312   10.6588 C.3     1  UNL1        0.0017
      8 C          66.4787   95.2162    9.8277 C.3     1  UNL1        0.0001
      9 C          67.6561   94.6347    9.1027 C.3     1  UNL1        0.0000
     10 C          67.9524   93.1680    9.2088 C.3     1  UNL1        0.0001
     11 C          67.0715   92.2831   10.0399 C.3     1  UNL1        0.0017
     12 C          65.5625   91.3140   12.8230 C.3     1  UNL1        0.0919
     13 C          69.7446   94.0796   16.1187 C.3     1  UNL1        0.0897
     14 N          68.6990   93.3882   15.2948 N.3     1  UNL1       -0.2691
     15 C          69.1024   92.3567   14.2832 C.3     1  UNL1        0.0897
     16 C          68.0568   91.6653   13.4593 C.3     1  UNL1        0.0897
     17 N          66.6080   92.0055   13.6470 N.3     1  UNL1       -0.2689
     18 C          66.2047   93.0369   14.6586 C.3     1  UNL1        0.0897
     19 C          67.2502   93.7283   15.4825 C.3     1  UNL1        0.0897
     20 C          61.4065   90.3470   11.3216 C.3     1  UNL1        0.1093
     21 C          61.0607   89.2909   10.3140 C.3     1  UNL1        0.1142
     22 C          60.3530   89.6671    9.0461 C.3     1  UNL1        0.1127
     23 N          60.0073   88.6111    8.0385 N.am    1  UNL1       -0.2978
     24 C          60.3692   87.1788    8.2988 C.2     1  UNL1        0.2618
     25 O          60.0234   86.1228    7.2912 O.2     1  UNL1       -0.2686
     26 C          61.0769   86.8027    9.5668 C.ar    1  UNL1        0.1140
     27 C          61.5574   85.4834   10.0945 C.ar    1  UNL1        0.0233
     28 C          62.2001   85.7241   11.4283 C.ar    1  UNL1        0.0188
     29 C          62.1169   87.1921   11.7249 C.ar    1  UNL1        0.0760
     30 N          61.4227   87.8588   10.5744 N.ar    1  UNL1       -0.3222
     31 H          59.5428   88.8581    7.2064 H       1  UNL1        0.1498
     32 C          62.8177   84.6800   12.3107 C.ar    1  UNL1        0.0023
     33 C          63.6919   85.0897   13.4587 C.ar    1  UNL1        0.0001
     34 C          64.3094   84.0456   14.3410 C.ar    1  UNL1        0.0009
     35 C          64.0528   82.5918   14.0754 C.ar    1  UNL1        0.0114
     36 C          63.1786   82.1820   12.9274 C.ar    1  UNL1        0.0577
     37 CL         62.9220   80.7283   12.6616 Cl      1  UNL1       -0.0822
     38 C          62.5611   83.2262   12.0450 C.ar    1  UNL1        0.0114
@<TRIPOS>BOND
     1    13    14    1
     2    14    15    1
     3    15    16    1
     4    16    17    1
     5    17    12    1
     6     5    12    1
     7     5     1    1
     8     1     2   am
     9     2     3    2
    10     2    20    1
    11    21    20    1
    12    21    22    1
    13    22    23    1
    14    23    24   am
    15    24    25    2
    16    24    26    1
    17    26    27   ar
    18    27    28   ar
    19    28    32    1
    20    32    33   ar
    21    33    34   ar
    22    34    35   ar
    23    35    36   ar
    24    36    37    1
    25    36    38   ar
    26    28    29   ar
    27    29    30   ar
    28     5     6    1
    29     6     7    1
    30     7     8    1
    31     8     9    1
    32     9    10    1
    33    10    11    1
    34    17    18    1
    35    18    19    1
    36    19    14    1
    37    30    21    1
    38    11     6    1
    39    30    26   ar
    40    38    32   ar
    41     1     4    1
    42    23    31    1
@<TRIPOS>MOLECULE
*****
 38 42 0 0 0
SMALL
GASTEIGER

@<TRIPOS>ATOM
      1 N          62.4233   90.5898   11.9362 N.am    1  UNL1       -0.3045
      2 C          61.0697   89.9998   12.2002 C.2     1  UNL1        0.2244
      3 O          60.7182   89.5143   13.5752 O.2     1  UNL1       -0.2750
      4 H          62.6540   90.9084   11.0337 H       1  UNL1        0.1494
      5 C          63.4255   90.6943   13.0474 C.3     1  UNL1        0.0874
      6 C          63.5812   89.5676   14.0253 C.3     1  UNL1        0.0194
      7 C          64.1405   88.2520   13.5710 C.3     1  UNL1        0.0017
      8 C          64.2962   87.1253   14.5490 C.3     1  UNL1        0.0001
      9 C          63.8927   87.3143   15.9812 C.3     1  UNL1        0.0000
     10 C          63.3334   88.6300   16.4355 C.3     1  UNL1        0.0001
     11 C          63.1777   89.7565   15.4576 C.3     1  UNL1        0.0017
     12 C          64.2720   91.9255   13.1806 C.3     1  UNL1        0.0919
     13 C          68.9465   92.7632    9.5135 C.3     1  UNL1        0.0897
     14 N          67.7779   92.5538   10.4303 N.3     1  UNL1       -0.2691
     15 C          66.3928   92.9018    9.9714 C.3     1  UNL1        0.0897
     16 C          65.2242   92.6924   10.8882 C.3     1  UNL1        0.0897
     17 N          65.4407   92.1349   12.2638 N.3     1  UNL1       -0.2689
     18 C          66.8257   91.7869   12.7227 C.3     1  UNL1        0.0897
     19 C          67.9944   91.9963   11.8059 C.3     1  UNL1        0.0897
     20 C          60.0675   89.8953   11.0890 C.3     1  UNL1        0.1093
     21 C          60.2298   88.8467   10.0288 C.3     1  UNL1        0.1142
     22 C          59.7391   89.1067    8.6354 C.3     1  UNL1        0.1127
     23 N          59.9013   88.0581    7.5752 N.am    1  UNL1       -0.2978
     24 C          60.5544   86.7494    7.9083 C.2     1  UNL1        0.2618
     25 O          60.7166   85.7008    6.8480 O.2     1  UNL1       -0.2686
     26 C          61.0451   86.4894    9.3017 C.ar    1  UNL1        0.1140
     27 C          61.7233   85.3040    9.9221 C.ar    1  UNL1        0.0233
     28 C          61.9801   85.6200   11.3658 C.ar    1  UNL1        0.0188
     29 C          61.4607   87.0007   11.6376 C.ar    1  UNL1        0.0760
     30 N          60.8828   87.5380   10.3619 N.ar    1  UNL1       -0.3222
     31 H          59.5792   88.2288    6.6607 H       1  UNL1        0.1498
     32 C          62.6404   84.7143   12.3626 C.ar    1  UNL1        0.0023
     33 C          63.6960   83.7477   11.9138 C.ar    1  UNL1        0.0001
     34 C          64.3563   82.8421   12.9107 C.ar    1  UNL1        0.0009
     35 C          63.9611   82.9030   14.3564 C.ar    1  UNL1        0.0114
     36 C          62.9055   83.8696   14.8053 C.ar    1  UNL1        0.0577
     37 CL         62.5102   83.9305   16.2509 Cl      1  UNL1       -0.0822
     38 C          62.2452   84.7752   13.8083 C.ar    1  UNL1        0.0114
@<TRIPOS>BOND
     1    13    14    1
     2    14    15    1
     3    15    16    1
     4    16    17    1
     5    17    12    1
     6     5    12    1
     7     5     1    1
     8     1     2   am
     9     2     3    2
    10     2    20    1
    11    21    20    1
    12    21    22    1
    13    22    23    1
    14    23    24   am
    15    24    25    2
    16    24    26    1
    17    26    27   ar
    18    27    28   ar
    19    28    32    1
    20    32    33   ar
    21    33    34   ar
    22    34    35   ar
    23    35    36   ar
    24    36    37    1
    25    36    38   ar
    26    28    29   ar
    27    29    30   ar
    28     5     6    1
    29     6     7    1
    30     7     8    1
    31     8     9    1
    32     9    10    1
    33    10    11    1
    34    17    18    1
    35    18    19    1
    36    19    14    1
    37    30    21    1
    38    11     6    1
    39    30    26   ar
    40    38    32   ar
    41     1     4    1
    42    23    31    1
