@<TRIPOS>MOLECULE
*****
 23 26 0 0 0
SMALL
GASTEIGER

@<TRIPOS>ATOM
      1 C          66.1230   92.4184   11.8952 C.ar    1  UNL1       -0.0144
      2 C          64.7789   91.7592   11.8016 C.ar    1  UNL1        0.0051
      3 S          64.3082   91.4664   13.1954 S.2     1  UNL1       -0.0915
      4 C          65.3613   91.9447   14.1504 C.ar    1  UNL1        0.0288
      5 C          65.4439   91.9204   15.6479 C.ar    1  UNL1        0.0065
      6 C          66.6481   92.4845   16.3418 C.ar    1  UNL1        0.0005
      7 C          67.7697   93.0729   15.5383 C.ar    1  UNL1        0.0000
      8 C          67.6872   93.0972   14.0408 C.ar    1  UNL1        0.0002
      9 C          66.4830   92.5330   13.3468 C.ar    1  UNL1        0.0025
     10 C          68.0856   92.0260   10.2386 C.3     1  UNL1        0.0110
     11 C          66.9602   92.8817   10.7400 C.3     1  UNL1        0.0627
     12 C          66.6721   94.2005   10.0862 C.ar    1  UNL1        0.0627
     13 C          67.4007   94.5924    8.8349 C.ar    1  UNL1        0.0151
     14 C          67.1126   95.9112    8.1810 C.ar    1  UNL1        0.0028
     15 C          66.0958   96.8383    8.7784 C.ar    1  UNL1        0.0207
     16 C          65.3672   96.4464   10.0296 C.ar    1  UNL1        0.0985
     17 N          65.6553   95.1276   10.6835 N.ar    1  UNL1       -0.2478
     18 C          64.0360   91.4475   10.5363 C.3     1  UNL1        0.0499
     19 C          62.6172   90.9648   10.5991 C.3     1  UNL1        0.0773
     20 N          62.3282   89.4962   10.6973 N.3     1  UNL1       -0.2723
     21 C          62.7336   88.3956   11.6323 C.3     1  UNL1        0.0735
     22 C          61.9195   87.4193   10.8362 C.3     1  UNL1        0.0346
     23 C          61.5140   88.5198    9.9011 C.3     1  UNL1        0.0735
@<TRIPOS>BOND
     1    11    10    1
     2    11    12    1
     3    12    13   ar
     4    13    14   ar
     5    14    15   ar
     6    15    16   ar
     7    16    17   ar
     8    11     1    1
     9     1     2   ar
    10     2    18    1
    11    18    19    1
    12    19    20    1
    13    20    21    1
    14    21    22    1
    15    22    23    1
    16     2     3   ar
    17     3     4   ar
    18     4     5   ar
    19     5     6   ar
    20     6     7   ar
    21     7     8   ar
    22     8     9   ar
    23    17    12   ar
    24     9     1   ar
    25    23    20    1
    26     9     4   ar
@<TRIPOS>MOLECULE
*****
 23 26 0 0 0
SMALL
GASTEIGER

@<TRIPOS>ATOM
      1 C          62.8193   85.2067   11.2438 C.ar    1  UNL1       -0.0144
      2 C          63.1443   86.1477   12.3657 C.ar    1  UNL1        0.0051
      3 S          62.4809   87.4614   12.0756 S.2     1  UNL1       -0.0915
      4 C          61.7458   87.3322   10.7745 C.ar    1  UNL1        0.0288
      5 C          60.9131   88.3034    9.9914 C.ar    1  UNL1        0.0065
      6 C          60.2895   87.8811    8.6942 C.ar    1  UNL1        0.0005
      7 C          60.4987   86.4875    8.1801 C.ar    1  UNL1        0.0000
      8 C          61.3314   85.5163    8.9632 C.ar    1  UNL1        0.0002
      9 C          61.9550   85.9387   10.2604 C.ar    1  UNL1        0.0025
     10 C          64.1803   83.3771    9.9986 C.3     1  UNL1        0.0110
     11 C          63.2780   83.7834   11.1260 C.3     1  UNL1        0.0627
     12 C          62.8347   82.7664   12.1354 C.ar    1  UNL1        0.0627
     13 C          62.9036   81.3043   11.8072 C.ar    1  UNL1        0.0151
     14 C          62.4602   80.2873   12.8167 C.ar    1  UNL1        0.0028
     15 C          61.9478   80.7323   14.1544 C.ar    1  UNL1        0.0207
     16 C          61.8789   82.1943   14.4826 C.ar    1  UNL1        0.0985
     17 N          62.3223   83.2114   13.4732 N.ar    1  UNL1       -0.2478
     18 C          63.9851   85.8308   13.5668 C.3     1  UNL1        0.0499
     19 C          64.2453   86.8867   14.5999 C.3     1  UNL1        0.0773
     20 N          63.5615   86.8163   15.9331 N.3     1  UNL1       -0.2723
     21 C          63.0615   85.7080   16.8115 C.3     1  UNL1        0.0735
     22 C          62.5943   86.7167   17.8185 C.3     1  UNL1        0.0346
     23 C          63.0943   87.8251   16.9401 C.3     1  UNL1        0.0735
@<TRIPOS>BOND
     1    11    10    1
     2    11    12    1
     3    12    13   ar
     4    13    14   ar
     5    14    15   ar
     6    15    16   ar
     7    16    17   ar
     8    11     1    1
     9     1     2   ar
    10     2    18    1
    11    18    19    1
    12    19    20    1
    13    20    21    1
    14    21    22    1
    15    22    23    1
    16     2     3   ar
    17     3     4   ar
    18     4     5   ar
    19     5     6   ar
    20     6     7   ar
    21     7     8   ar
    22     8     9   ar
    23    17    12   ar
    24     9     1   ar
    25    23    20    1
    26     9     4   ar
@<TRIPOS>MOLECULE
*****
 23 26 0 0 0
SMALL
GASTEIGER

@<TRIPOS>ATOM
      1 C          63.7563   90.5161   13.8643 C.ar    1  UNL1       -0.0144
      2 C          62.7540   90.2902   12.7715 C.ar    1  UNL1        0.0051
      3 S          63.2564   90.9722   11.5336 S.2     1  UNL1       -0.0915
      4 C          64.5693   91.6195   11.8613 C.ar    1  UNL1        0.0288
      5 C          65.5233   92.4292   11.0342 C.ar    1  UNL1        0.0065
      6 C          66.7862   92.9571   11.6475 C.ar    1  UNL1        0.0005
      7 C          67.0951   92.6752   13.0881 C.ar    1  UNL1        0.0000
      8 C          66.1411   91.8655   13.9152 C.ar    1  UNL1        0.0002
      9 C          64.8782   91.3377   13.3018 C.ar    1  UNL1        0.0025
     10 C          63.5059   90.9773   16.4089 C.3     1  UNL1        0.0110
     11 C          63.6546   90.0094   15.2725 C.3     1  UNL1        0.0627
     12 C          63.7016   88.5351   15.5444 C.ar    1  UNL1        0.0627
     13 C          64.4251   87.6210   14.6004 C.ar    1  UNL1        0.0151
     14 C          64.4721   86.1466   14.8722 C.ar    1  UNL1        0.0028
     15 C          63.7956   85.5862   16.0880 C.ar    1  UNL1        0.0207
     16 C          63.0721   86.5002   17.0320 C.ar    1  UNL1        0.0985
     17 N          63.0251   87.9747   16.7602 N.ar    1  UNL1       -0.2478
     18 C          61.4740   89.5179   12.8949 C.3     1  UNL1        0.0499
     19 C          60.5070   89.4807   11.7488 C.3     1  UNL1        0.0773
     20 N          60.5458   88.3436   10.7714 N.3     1  UNL1       -0.2723
     21 C          60.9304   86.8955   10.8435 C.3     1  UNL1        0.0735
     22 C          60.6008   86.7355    9.3891 C.3     1  UNL1        0.0346
     23 C          60.2162   88.1835    9.3168 C.3     1  UNL1        0.0735
@<TRIPOS>BOND
     1    11    10    1
     2    11    12    1
     3    12    13   ar
     4    13    14   ar
     5    14    15   ar
     6    15    16   ar
     7    16    17   ar
     8    11     1    1
     9     1     2   ar
    10     2    18    1
    11    18    19    1
    12    19    20    1
    13    20    21    1
    14    21    22    1
    15    22    23    1
    16     2     3   ar
    17     3     4   ar
    18     4     5   ar
    19     5     6   ar
    20     6     7   ar
    21     7     8   ar
    22     8     9   ar
    23    17    12   ar
    24     9     1   ar
    25    23    20    1
    26     9     4   ar
@<TRIPOS>MOLECULE
*****
 23 26 0 0 0
SMALL
GASTEIGER

@<TRIPOS>ATOM
      1 C          63.4326   86.1483   12.9216 C.ar    1  UNL1       -0.0144
      2 C          63.9902   85.5102   14.1593 C.ar    1  UNL1        0.0051
      3 S          64.4786   86.6025   15.0640 S.2     1  UNL1       -0.0915
      4 C          64.2228   87.9155   14.3855 C.ar    1  UNL1        0.0288
      5 C          64.4951   89.3305   14.8022 C.ar    1  UNL1        0.0065
      6 C          64.1208   90.4647   13.8948 C.ar    1  UNL1        0.0005
      7 C          63.4743   90.1840   12.5707 C.ar    1  UNL1        0.0000
      8 C          63.2021   88.7691   12.1540 C.ar    1  UNL1        0.0002
      9 C          63.5764   87.6348   13.0614 C.ar    1  UNL1        0.0025
     10 C          63.2117   84.0001   11.4770 C.3     1  UNL1        0.0110
     11 C          62.8360   85.4265   11.7499 C.3     1  UNL1        0.0627
     12 C          61.8636   86.1309   10.8509 C.ar    1  UNL1        0.0627
     13 C          61.9273   85.9220    9.3668 C.ar    1  UNL1        0.0151
     14 C          60.9549   86.6264    8.4678 C.ar    1  UNL1        0.0028
     15 C          59.9188   87.5398    9.0528 C.ar    1  UNL1        0.0207
     16 C          59.8552   87.7488   10.5368 C.ar    1  UNL1        0.0985
     17 N          60.8275   87.0443   11.4359 N.ar    1  UNL1       -0.2478
     18 C          64.0491   84.0384   14.4426 C.3     1  UNL1        0.0499
     19 C          62.8159   83.3107   14.8893 C.3     1  UNL1        0.0773
     20 N          62.4936   81.9611   14.3194 N.3     1  UNL1       -0.2723
     21 C          63.2870   80.8688   13.6656 C.3     1  UNL1        0.0735
     22 C          62.0378   80.0526   13.5133 C.3     1  UNL1        0.0346
     23 C          61.2444   81.1448   14.1671 C.3     1  UNL1        0.0735
@<TRIPOS>BOND
     1    11    10    1
     2    11    12    1
     3    12    13   ar
     4    13    14   ar
     5    14    15   ar
     6    15    16   ar
     7    16    17   ar
     8    11     1    1
     9     1     2   ar
    10     2    18    1
    11    18    19    1
    12    19    20    1
    13    20    21    1
    14    21    22    1
    15    22    23    1
    16     2     3   ar
    17     3     4   ar
    18     4     5   ar
    19     5     6   ar
    20     6     7   ar
    21     7     8   ar
    22     8     9   ar
    23    17    12   ar
    24     9     1   ar
    25    23    20    1
    26     9     4   ar
@<TRIPOS>MOLECULE
*****
 23 26 0 0 0
SMALL
GASTEIGER

@<TRIPOS>ATOM
      1 C          63.8174   90.8387   13.3233 C.ar    1  UNL1       -0.0144
      2 C          64.7763   91.6308   12.4848 C.ar    1  UNL1        0.0051
      3 S          64.2449   91.6676   11.0826 S.2     1  UNL1       -0.0915
      4 C          62.9574   90.8984   11.0545 C.ar    1  UNL1        0.0288
      5 C          61.9916   90.5982    9.9468 C.ar    1  UNL1        0.0065
      6 C          60.7615   89.7857   10.2239 C.ar    1  UNL1        0.0005
      7 C          60.4973   89.2734   11.6088 C.ar    1  UNL1        0.0000
      8 C          61.4632   89.5736   12.7164 C.ar    1  UNL1        0.0002
      9 C          62.6932   90.3861   12.4393 C.ar    1  UNL1        0.0025
     10 C          64.2421   91.6666   15.7491 C.3     1  UNL1        0.0110
     11 C          63.9579   90.5500   14.7885 C.3     1  UNL1        0.0627
     12 C          63.8141   89.1449   15.2932 C.ar    1  UNL1        0.0627
     13 C          63.1392   88.8854   16.6075 C.ar    1  UNL1        0.0151
     14 C          62.9954   87.4802   17.1123 C.ar    1  UNL1        0.0028
     15 C          63.5266   86.3345   16.3029 C.ar    1  UNL1        0.0207
     16 C          64.2015   86.5940   14.9887 C.ar    1  UNL1        0.0985
     17 N          64.3453   87.9991   14.4839 N.ar    1  UNL1       -0.2478
     18 C          66.0442   92.2732   12.9643 C.3     1  UNL1        0.0499
     19 C          66.6309   93.4295   12.2102 C.3     1  UNL1        0.0773
     20 N          67.3151   93.1979   10.8956 N.3     1  UNL1       -0.2723
     21 C          68.1509   92.0962   10.3144 C.3     1  UNL1        0.0735
     22 C          68.2827   92.8703    9.0365 C.3     1  UNL1        0.0346
     23 C          67.4469   93.9720    9.6175 C.3     1  UNL1        0.0735
@<TRIPOS>BOND
     1    11    10    1
     2    11    12    1
     3    12    13   ar
     4    13    14   ar
     5    14    15   ar
     6    15    16   ar
     7    16    17   ar
     8    11     1    1
     9     1     2   ar
    10     2    18    1
    11    18    19    1
    12    19    20    1
    13    20    21    1
    14    21    22    1
    15    22    23    1
    16     2     3   ar
    17     3     4   ar
    18     4     5   ar
    19     5     6   ar
    20     6     7   ar
    21     7     8   ar
    22     8     9   ar
    23    17    12   ar
    24     9     1   ar
    25    23    20    1
    26     9     4   ar
@<TRIPOS>MOLECULE
*****
 23 26 0 0 0
SMALL
GASTEIGER

@<TRIPOS>ATOM
      1 C          63.2182   90.4591   12.5727 C.ar    1  UNL1       -0.0144
      2 C          63.5268   90.2550   14.0264 C.ar    1  UNL1        0.0051
      3 S          64.7460   91.0630   14.3592 S.2     1  UNL1       -0.0915
      4 C          65.1909   91.7664   13.1113 C.ar    1  UNL1        0.0288
      5 C          66.3337   92.6986   12.8377 C.ar    1  UNL1        0.0065
      6 C          66.5324   93.2575   11.4600 C.ar    1  UNL1        0.0005
      7 C          65.5882   92.8842   10.3559 C.ar    1  UNL1        0.0000
      8 C          64.4453   91.9521   10.6295 C.ar    1  UNL1        0.0002
      9 C          64.2466   91.3932   12.0072 C.ar    1  UNL1        0.0025
     10 C          60.8056   90.6028   11.6193 C.3     1  UNL1        0.0110
     11 C          62.0809   89.8381   11.8172 C.3     1  UNL1        0.0627
     12 C          62.2186   88.4525   11.2596 C.ar    1  UNL1        0.0627
     13 C          62.0122   88.2099    9.7938 C.ar    1  UNL1        0.0151
     14 C          62.1500   86.8243    9.2361 C.ar    1  UNL1        0.0028
     15 C          62.4941   85.6811   10.1443 C.ar    1  UNL1        0.0207
     16 C          62.7005   85.9236   11.6101 C.ar    1  UNL1        0.0985
     17 N          62.5628   87.3093   12.1678 N.ar    1  UNL1       -0.2478
     18 C          62.7523   89.3942   14.9798 C.3     1  UNL1        0.0499
     19 C          63.4711   88.6188   16.0437 C.3     1  UNL1        0.0773
     20 N          63.6966   87.1455   15.8751 N.3     1  UNL1       -0.2723
     21 C          64.4899   86.2955   14.9274 C.3     1  UNL1        0.0735
     22 C          64.0155   85.0619   15.6366 C.3     1  UNL1        0.0346
     23 C          63.2222   85.9118   16.5843 C.3     1  UNL1        0.0735
@<TRIPOS>BOND
     1    11    10    1
     2    11    12    1
     3    12    13   ar
     4    13    14   ar
     5    14    15   ar
     6    15    16   ar
     7    16    17   ar
     8    11     1    1
     9     1     2   ar
    10     2    18    1
    11    18    19    1
    12    19    20    1
    13    20    21    1
    14    21    22    1
    15    22    23    1
    16     2     3   ar
    17     3     4   ar
    18     4     5   ar
    19     5     6   ar
    20     6     7   ar
    21     7     8   ar
    22     8     9   ar
    23    17    12   ar
    24     9     1   ar
    25    23    20    1
    26     9     4   ar
@<TRIPOS>MOLECULE
*****
 23 26 0 0 0
SMALL
GASTEIGER

@<TRIPOS>ATOM
      1 C          62.9137   85.7893   12.1233 C.ar    1  UNL1       -0.0144
      2 C          63.5280   86.6315   13.2017 C.ar    1  UNL1        0.0051
      3 S          63.9831   85.7177   14.3007 S.2     1  UNL1       -0.0915
      4 C          63.6500   84.3107   13.9015 C.ar    1  UNL1        0.0288
      5 C          63.8632   82.9950   14.5895 C.ar    1  UNL1        0.0065
      6 C          63.4154   81.7235   13.9317 C.ar    1  UNL1        0.0005
      7 C          62.7544   81.7677   12.5859 C.ar    1  UNL1        0.0000
      8 C          62.5412   83.0834   11.8979 C.ar    1  UNL1        0.0002
      9 C          62.9891   84.3549   12.5557 C.ar    1  UNL1        0.0025
     10 C          62.4731   85.4881    9.5805 C.3     1  UNL1        0.0110
     11 C          62.3269   86.2929   10.8379 C.3     1  UNL1        0.0627
     12 C          61.5940   87.6013   10.8099 C.ar    1  UNL1        0.0627
     13 C          62.0879   88.7192    9.9401 C.ar    1  UNL1        0.0151
     14 C          61.3549   90.0276    9.9120 C.ar    1  UNL1        0.0028
     15 C          60.1280   90.2182   10.7537 C.ar    1  UNL1        0.0207
     16 C          59.6341   89.1003   11.6234 C.ar    1  UNL1        0.0985
     17 N          60.3670   87.7919   11.6515 N.ar    1  UNL1       -0.2478
     18 C          63.6635   88.1253   13.1843 C.3     1  UNL1        0.0499
     19 C          64.3577   88.8286   14.3127 C.3     1  UNL1        0.0773
     20 N          64.8948   90.2152   14.1150 N.3     1  UNL1       -0.2723
     21 C          65.9484   91.0495   14.7811 C.3     1  UNL1        0.0735
     22 C          65.6543   92.1760   13.8354 C.3     1  UNL1        0.0346
     23 C          64.6007   91.3418   13.1692 C.3     1  UNL1        0.0735
@<TRIPOS>BOND
     1    11    10    1
     2    11    12    1
     3    12    13   ar
     4    13    14   ar
     5    14    15   ar
     6    15    16   ar
     7    16    17   ar
     8    11     1    1
     9     1     2   ar
    10     2    18    1
    11    18    19    1
    12    19    20    1
    13    20    21    1
    14    21    22    1
    15    22    23    1
    16     2     3   ar
    17     3     4   ar
    18     4     5   ar
    19     5     6   ar
    20     6     7   ar
    21     7     8   ar
    22     8     9   ar
    23    17    12   ar
    24     9     1   ar
    25    23    20    1
    26     9     4   ar
@<TRIPOS>MOLECULE
*****
 23 26 0 0 0
SMALL
GASTEIGER

@<TRIPOS>ATOM
      1 C          63.8278   84.8675   13.4305 C.ar    1  UNL1       -0.0144
      2 C          63.0707   85.5549   12.3331 C.ar    1  UNL1        0.0051
      3 S          62.3667   84.5040   11.5270 S.2     1  UNL1       -0.0915
      4 C          62.6888   83.1671   12.1261 C.ar    1  UNL1        0.0288
      5 C          62.2764   81.7741   11.7524 C.ar    1  UNL1        0.0065
      6 C          62.7671   80.6059   12.5551 C.ar    1  UNL1        0.0005
      7 C          63.6701   80.8306   13.7316 C.ar    1  UNL1        0.0000
      8 C          64.0825   82.2235   14.1053 C.ar    1  UNL1        0.0002
      9 C          63.5918   83.3917   13.3025 C.ar    1  UNL1        0.0025
     10 C          66.1017   85.1225   14.6613 C.3     1  UNL1        0.0110
     11 C          64.6727   85.5382   14.4728 C.3     1  UNL1        0.0627
     12 C          64.0888   86.6243   15.3267 C.ar    1  UNL1        0.0627
     13 C          63.3917   86.2774   16.6088 C.ar    1  UNL1        0.0151
     14 C          62.8077   87.3635   17.4627 C.ar    1  UNL1        0.0028
     15 C          62.9209   88.7967   17.0346 C.ar    1  UNL1        0.0207
     16 C          63.6180   89.1436   15.7525 C.ar    1  UNL1        0.0985
     17 N          64.2019   88.0575   14.8986 N.ar    1  UNL1       -0.2478
     18 C          63.0255   87.0337   12.0854 C.3     1  UNL1        0.0499
     19 C          62.1841   87.5821   10.9713 C.3     1  UNL1        0.0773
     20 N          61.1523   88.6325   11.2577 N.3     1  UNL1       -0.2723
     21 C          59.6916   88.6195   11.5984 C.3     1  UNL1        0.0735
     22 C          59.6932   90.1180   11.6628 C.3     1  UNL1        0.0346
     23 C          61.1539   90.1312   11.3221 C.3     1  UNL1        0.0735
@<TRIPOS>BOND
     1    11    10    1
     2    11    12    1
     3    12    13   ar
     4    13    14   ar
     5    14    15   ar
     6    15    16   ar
     7    16    17   ar
     8    11     1    1
     9     1     2   ar
    10     2    18    1
    11    18    19    1
    12    19    20    1
    13    20    21    1
    14    21    22    1
    15    22    23    1
    16     2     3   ar
    17     3     4   ar
    18     4     5   ar
    19     5     6   ar
    20     6     7   ar
    21     7     8   ar
    22     8     9   ar
    23    17    12   ar
    24     9     1   ar
    25    23    20    1
    26     9     4   ar
@<TRIPOS>MOLECULE
*****
 23 26 0 0 0
SMALL
GASTEIGER

@<TRIPOS>ATOM
      1 C          61.4558   88.1911   10.8211 C.ar    1  UNL1       -0.0144
      2 C          62.2520   86.9720   11.1814 C.ar    1  UNL1        0.0051
      3 S          62.0122   85.9332   10.1262 S.2     1  UNL1       -0.0915
      4 C          61.0678   86.5103    9.1137 C.ar    1  UNL1        0.0288
      5 C          60.4766   85.9455    7.8562 C.ar    1  UNL1        0.0065
      6 C          59.5415   86.7761    7.0282 C.ar    1  UNL1        0.0005
      7 C          59.1976   88.1715    7.4577 C.ar    1  UNL1        0.0000
      8 C          59.7888   88.7364    8.7152 C.ar    1  UNL1        0.0002
      9 C          60.7239   87.9058    9.5432 C.ar    1  UNL1        0.0025
     10 C          60.1281   89.8811   12.2811 C.3     1  UNL1        0.0110
     11 C          61.4010   89.4708   11.6017 C.3     1  UNL1        0.0627
     12 C          62.6190   90.3403   11.7029 C.ar    1  UNL1        0.0627
     13 C          63.1296   91.0602   10.4900 C.ar    1  UNL1        0.0151
     14 C          64.3476   91.9298   10.5912 C.ar    1  UNL1        0.0028
     15 C          65.0551   92.0795   11.9054 C.ar    1  UNL1        0.0207
     16 C          64.5446   91.3596   13.1182 C.ar    1  UNL1        0.0985
     17 N          63.3266   90.4901   13.0171 N.ar    1  UNL1       -0.2478
     18 C          63.1333   86.8185   12.3855 C.3     1  UNL1        0.0499
     19 C          63.2679   85.4810   13.0508 C.3     1  UNL1        0.0773
     20 N          63.2423   85.3817   14.5473 N.3     1  UNL1       -0.2723
     21 C          62.5121   84.5281   15.5414 C.3     1  UNL1        0.0735
     22 C          63.2061   85.2412   16.6637 C.3     1  UNL1        0.0346
     23 C          63.9364   86.0949   15.6697 C.3     1  UNL1        0.0735
@<TRIPOS>BOND
     1    11    10    1
     2    11    12    1
     3    12    13   ar
     4    13    14   ar
     5    14    15   ar
     6    15    16   ar
     7    16    17   ar
     8    11     1    1
     9     1     2   ar
    10     2    18    1
    11    18    19    1
    12    19    20    1
    13    20    21    1
    14    21    22    1
    15    22    23    1
    16     2     3   ar
    17     3     4   ar
    18     4     5   ar
    19     5     6   ar
    20     6     7   ar
    21     7     8   ar
    22     8     9   ar
    23    17    12   ar
    24     9     1   ar
    25    23    20    1
    26     9     4   ar
