@<TRIPOS>MOLECULE
*****
 52 55 0 0 0
SMALL
GASTEIGER

@<TRIPOS>ATOM
      1 C          62.6598   90.1790   10.8542 C.3     1  UNL1        0.0760
      2 C          61.1114   88.1610   10.3249 C.2     1  UNL1        0.2403
      3 O          59.9935   88.8218   11.0756 O.2     1  UNL1       -0.2733
      4 N          62.4446   88.8396   10.2142 N.am    1  UNL1       -0.3043
      5 H          63.1783   88.4059    9.7214 H       1  UNL1        0.1494
      6 C          60.8961   86.8216    9.6848 C.3     1  UNL1        0.1496
      7 N          63.2388   83.7230   10.4975 N.am    1  UNL1       -0.2567
      8 C          64.5107   83.1020   10.0008 C.3     1  UNL1        0.1168
      9 C          62.7034   84.9618    9.8428 C.2     1  UNL1        0.3046
     10 O          63.4398   85.5797    8.6913 O.2     1  UNL1       -0.2526
     11 N          61.4315   85.5828   10.3396 N.am    1  UNL1       -0.2824
     12 H          60.9482   85.1773   11.0953 H       1  UNL1        0.1514
     13 C          62.5024   83.1052   11.6490 C.3     1  UNL1        0.1413
     14 C          62.8430   84.5290   15.2437 C.ar    1  UNL1        0.0875
     15 N          62.1434   84.4716   13.9182 N.ar    1  UNL1       -0.2453
     16 C          62.8635   83.4771   13.0566 C.ar    1  UNL1        0.0858
     17 C          64.0083   82.9198   13.8497 C.ar    1  UNL1        0.0530
     18 S          63.9956   83.5699   15.2014 S.2     1  UNL1       -0.0705
     19 C          63.4292   85.6199   17.5277 C.3     1  UNL1        0.0069
     20 C          62.4578   85.3936   16.4074 C.3     1  UNL1        0.0465
     21 C          61.1011   86.0319   16.4507 C.3     1  UNL1        0.0069
     22 C          60.1455   86.7211    8.3901 C.3     1  UNL1        0.0270
     23 C          59.1223   87.7584    8.0338 C.3     1  UNL1        0.0022
     24 C          60.4181   85.5831    7.4516 C.3     1  UNL1        0.0022
     25 C          63.3590   91.2686   10.0967 C.3     1  UNL1        0.0216
     26 C          64.8055   91.5602   10.3662 C.3     1  UNL1        0.0217
     27 C          65.2219   92.1294   11.6901 C.3     1  UNL1        0.0792
     28 N          65.1437   93.6083   11.9285 N.am    1  UNL1       -0.2720
     29 C          66.2653   94.4999   11.4845 C.2     1  UNL1        0.4019
     30 O          67.4650   93.9126   10.8020 O.2     1  UNL1       -0.2264
     31 H          64.3563   93.9937   12.3765 H       1  UNL1        0.1527
     32 O          66.1871   95.9787   11.7230 O.3     1  UNL1       -0.4291
     33 C          65.4462   96.8559   10.7579 C.3     1  UNL1        0.2447
     34 C          65.8199   96.8558    9.3051 C.ar    1  UNL1        0.0714
     35 C          67.2148   96.8559    8.7535 C.ar    1  UNL1        0.1053
     36 N          67.1213   96.8557    7.2565 N.ar    1  UNL1       -0.2350
     37 C          65.6685   96.8554    6.8828 C.ar    1  UNL1        0.1343
     38 S          64.8643   96.8555    8.1489 S.2     1  UNL1       -0.0652
     39 C          65.7164   91.2198   12.7754 C.3     1  UNL1        0.0460
     40 C          66.5656   91.7675   13.8840 C.ar    1  UNL1       -0.0205
     41 C          68.0417   91.9418   13.6820 C.ar    1  UNL1       -0.0042
     42 C          68.8908   92.4895   14.7905 C.ar    1  UNL1       -0.0003
     43 C          68.2640   92.8627   16.1011 C.ar    1  UNL1       -0.0000
     44 C          66.7879   92.6884   16.3032 C.ar    1  UNL1       -0.0003
     45 C          65.9388   92.1407   15.1946 C.ar    1  UNL1       -0.0042
     46 C          62.1758   90.4288   12.2519 C.3     1  UNL1        0.0459
     47 C          62.8486   89.7540   13.4104 C.ar    1  UNL1       -0.0205
     48 C          63.6131   88.4814   13.1962 C.ar    1  UNL1       -0.0042
     49 C          64.2859   87.8066   14.3547 C.ar    1  UNL1       -0.0003
     50 C          64.1942   88.4045   15.7273 C.ar    1  UNL1       -0.0000
     51 C          63.4296   89.6771   15.9415 C.ar    1  UNL1       -0.0003
     52 C          62.7568   90.3519   14.7831 C.ar    1  UNL1       -0.0042
@<TRIPOS>BOND
     1    19    20    1
     2    20    21    1
     3    20    14    1
     4    14    15   ar
     5    15    16   ar
     6    16    13    1
     7    13     7    1
     8     7     8    1
     9     7     9   am
    10     9    10    2
    11     9    11   am
    12     6    11    1
    13     6     2    1
    14     2     3    2
    15     2     4   am
    16     4     1    1
    17     1    25    1
    18    25    26    1
    19    27    26    1
    20    27    39    1
    21    39    40    1
    22    40    41   ar
    23    41    42   ar
    24    42    43   ar
    25    43    44   ar
    26    44    45   ar
    27    27    28    1
    28    28    29   am
    29    29    30    2
    30    29    32    1
    31    32    33    1
    32    33    34    1
    33    34    35   ar
    34    35    36   ar
    35    36    37   ar
    36    37    38   ar
    37     1    46    1
    38    46    47    1
    39    47    48   ar
    40    48    49   ar
    41    49    50   ar
    42    50    51   ar
    43    51    52   ar
    44     6    22    1
    45    22    23    1
    46    22    24    1
    47    16    17   ar
    48    17    18   ar
    49    18    14   ar
    50    45    40   ar
    51    38    34   ar
    52    52    47   ar
    53    11    12    1
    54     4     5    1
    55    28    31    1
@<TRIPOS>MOLECULE
*****
 52 55 0 0 0
SMALL
GASTEIGER

@<TRIPOS>ATOM
      1 C          61.9106   89.0218   11.1814 C.3     1  UNL1        0.0760
      2 C          62.1455   86.4380   11.3187 C.2     1  UNL1        0.2403
      3 O          60.7946   86.3495   11.9645 O.2     1  UNL1       -0.2733
      4 N          62.7036   87.7742   10.9271 N.am    1  UNL1       -0.3043
      5 H          63.5902   87.8323   10.5033 H       1  UNL1        0.1494
      6 C          62.9384   85.1904   11.0645 C.3     1  UNL1        0.1496
      7 N          63.3634   82.1800   13.6154 N.am    1  UNL1       -0.2567
      8 C          62.7970   80.8128   13.8604 C.3     1  UNL1        0.1168
      9 C          62.8678   83.0016   12.4625 C.2     1  UNL1        0.3046
     10 O          61.8056   82.4560   11.5545 O.2     1  UNL1       -0.2526
     11 N          63.4342   84.3688   12.2175 N.am    1  UNL1       -0.2824
     12 H          64.1312   84.7269   12.8134 H       1  UNL1        0.1514
     13 C          64.4255   82.7256   14.5233 C.3     1  UNL1        0.1413
     14 C          63.7624   86.1929   16.1369 C.ar    1  UNL1        0.0875
     15 N          63.4834   84.7230   16.0293 N.ar    1  UNL1       -0.2453
     16 C          64.3736   84.1592   14.9617 C.ar    1  UNL1        0.0858
     17 C          65.2027   85.2807   14.4094 C.ar    1  UNL1        0.0530
     18 S          64.8250   86.5376   15.1357 S.2     1  UNL1       -0.0705
     19 C          62.9927   88.6038   16.7246 C.3     1  UNL1        0.0069
     20 C          63.0959   87.1502   17.0800 C.3     1  UNL1        0.0465
     21 C          62.5324   86.6538   18.3785 C.3     1  UNL1        0.0069
     22 C          63.2357   84.7643    9.6573 C.3     1  UNL1        0.0270
     23 C          64.1554   83.6071    9.4025 C.3     1  UNL1        0.0022
     24 C          62.6132   85.4955    8.5050 C.3     1  UNL1        0.0022
     25 C          62.5700   90.2152   11.8066 C.3     1  UNL1        0.0216
     26 C          63.6557   90.9433   11.0711 C.3     1  UNL1        0.0217
     27 C          64.7160   91.6794   11.8353 C.3     1  UNL1        0.0792
     28 N          64.4396   92.1584   13.2296 N.am    1  UNL1       -0.2720
     29 C          64.5872   91.2178   14.3888 C.2     1  UNL1        0.4019
     30 O          65.0113   89.7984   14.1536 O.2     1  UNL1       -0.2264
     31 H          64.1612   93.0900   13.3840 H       1  UNL1        0.1527
     32 O          64.3107   91.6967   15.7832 O.3     1  UNL1       -0.4291
     33 C          65.3004   92.5807   16.4826 C.3     1  UNL1        0.2447
     34 C          66.6851   92.7414   15.9287 C.ar    1  UNL1        0.0714
     35 C          67.0750   93.6058   14.7666 C.ar    1  UNL1        0.1053
     36 N          68.5539   93.4645   14.5594 N.ar    1  UNL1       -0.2350
     37 C          69.0780   92.5127   15.5935 C.ar    1  UNL1        0.1343
     38 S          67.9230   92.0658   16.4398 S.2     1  UNL1       -0.0652
     39 C          66.0527   91.9366   11.2052 C.3     1  UNL1        0.0460
     40 C          66.3894   93.3056   10.6928 C.ar    1  UNL1       -0.0205
     41 C          67.3410   93.4634    9.5441 C.ar    1  UNL1       -0.0042
     42 C          67.6777   94.8323    9.0317 C.ar    1  UNL1       -0.0003
     43 C          67.0628   96.0435    9.6681 C.ar    1  UNL1       -0.0000
     44 C          66.1112   95.8857   10.8168 C.ar    1  UNL1       -0.0003
     45 C          65.7745   94.5168   11.3291 C.ar    1  UNL1       -0.0042
     46 C          60.4582   89.0760   10.8103 C.3     1  UNL1        0.0459
     47 C          60.0218   88.6851    9.4295 C.ar    1  UNL1       -0.0205
     48 C          60.0892   89.6824    8.3111 C.ar    1  UNL1       -0.0042
     49 C          59.6528   89.2915    6.9303 C.ar    1  UNL1       -0.0003
     50 C          59.1490   87.9033    6.6678 C.ar    1  UNL1       -0.0000
     51 C          59.0816   86.9059    7.7862 C.ar    1  UNL1       -0.0003
     52 C          59.5179   87.2968    9.1670 C.ar    1  UNL1       -0.0042
@<TRIPOS>BOND
     1    19    20    1
     2    20    21    1
     3    20    14    1
     4    14    15   ar
     5    15    16   ar
     6    16    13    1
     7    13     7    1
     8     7     8    1
     9     7     9   am
    10     9    10    2
    11     9    11   am
    12     6    11    1
    13     6     2    1
    14     2     3    2
    15     2     4   am
    16     4     1    1
    17     1    25    1
    18    25    26    1
    19    27    26    1
    20    27    39    1
    21    39    40    1
    22    40    41   ar
    23    41    42   ar
    24    42    43   ar
    25    43    44   ar
    26    44    45   ar
    27    27    28    1
    28    28    29   am
    29    29    30    2
    30    29    32    1
    31    32    33    1
    32    33    34    1
    33    34    35   ar
    34    35    36   ar
    35    36    37   ar
    36    37    38   ar
    37     1    46    1
    38    46    47    1
    39    47    48   ar
    40    48    49   ar
    41    49    50   ar
    42    50    51   ar
    43    51    52   ar
    44     6    22    1
    45    22    23    1
    46    22    24    1
    47    16    17   ar
    48    17    18   ar
    49    18    14   ar
    50    45    40   ar
    51    38    34   ar
    52    52    47   ar
    53    11    12    1
    54     4     5    1
    55    28    31    1
@<TRIPOS>MOLECULE
*****
 52 55 0 0 0
SMALL
GASTEIGER

@<TRIPOS>ATOM
      1 C          63.1336   85.9438   12.8543 C.3     1  UNL1        0.0760
      2 C          63.6762   87.9702   14.3871 C.2     1  UNL1        0.2403
      3 O          63.5601   87.0879   15.5946 O.2     1  UNL1       -0.2733
      4 N          63.4629   87.3981   13.0169 N.am    1  UNL1       -0.3043
      5 H          63.5391   87.9772   12.2244 H       1  UNL1        0.1494
      6 C          64.0056   89.4245   14.5497 C.3     1  UNL1        0.1496
      7 N          64.1107   91.3499   11.0811 N.am    1  UNL1       -0.2567
      8 C          63.1898   91.6994    9.9498 C.3     1  UNL1        0.1168
      9 C          63.5977   90.5620   12.2497 C.2     1  UNL1        0.3046
     10 O          62.1637   90.1234   12.2872 O.2     1  UNL1       -0.2526
     11 N          64.5187   90.2125   13.3810 N.am    1  UNL1       -0.2824
     12 H          65.4598   90.5004   13.3565 H       1  UNL1        0.1514
     13 C          65.5447   91.7885   11.0436 C.3     1  UNL1        0.1413
     14 C          67.2749   93.1956   14.2204 C.ar    1  UNL1        0.0875
     15 N          66.9098   92.0472   13.3272 N.ar    1  UNL1       -0.2453
     16 C          66.1139   92.5893   12.1772 C.ar    1  UNL1        0.0858
     17 C          65.9872   94.0727   12.3596 C.ar    1  UNL1        0.0530
     18 S          66.7047   94.4475   13.6224 S.2     1  UNL1       -0.0705
     19 C          68.8764   94.2849   15.9521 C.3     1  UNL1        0.0069
     20 C          68.0706   93.1076   15.4890 C.3     1  UNL1        0.0465
     21 C          68.0605   91.8422   16.2944 C.3     1  UNL1        0.0069
     22 C          63.8219   90.0908   15.8810 C.3     1  UNL1        0.0270
     23 C          64.3180   91.4903   16.0940 C.3     1  UNL1        0.0022
     24 C          63.1421   89.3577   16.9991 C.3     1  UNL1        0.0022
     25 C          61.9914   85.5271   11.9759 C.3     1  UNL1        0.0216
     26 C          61.2738   86.5484   11.1440 C.3     1  UNL1        0.0217
     27 C          61.7588   86.8634    9.7599 C.3     1  UNL1        0.0792
     28 N          61.3011   88.1151    9.0717 N.am    1  UNL1       -0.2720
     29 C          59.9080   88.2025    8.5225 C.2     1  UNL1        0.4019
     30 O          58.9726   87.0383    8.6616 O.2     1  UNL1       -0.2264
     31 H          61.9151   88.8793    8.9804 H       1  UNL1        0.1527
     32 O          59.4503   89.4543    7.8342 O.3     1  UNL1       -0.4291
     33 C          58.9819   89.3988    6.4103 C.3     1  UNL1        0.2447
     34 C          59.1409   90.5964    5.5213 C.ar    1  UNL1        0.0714
     35 C          58.0463   91.5289    5.0941 C.ar    1  UNL1        0.1053
     36 N          58.6513   92.5807    4.2121 N.ar    1  UNL1       -0.2350
     37 C          60.1197   92.2982    4.0942 C.ar    1  UNL1        0.1343
     38 S          60.4223   91.0719    4.9033 S.2     1  UNL1       -0.0652
     39 C          62.7014   85.9267    9.0642 C.3     1  UNL1        0.0460
     40 C          62.3043   85.2912    7.7648 C.ar    1  UNL1       -0.0205
     41 C          60.8533   85.1049    7.4335 C.ar    1  UNL1       -0.0042
     42 C          60.4563   84.4694    6.1341 C.ar    1  UNL1       -0.0003
     43 C          61.5103   84.0202    5.1660 C.ar    1  UNL1       -0.0000
     44 C          62.9613   84.2065    5.4972 C.ar    1  UNL1       -0.0003
     45 C          63.3583   84.8420    6.7966 C.ar    1  UNL1       -0.0042
     46 C          63.9465   84.9061   13.5703 C.3     1  UNL1        0.0459
     47 C          63.5243   83.4672   13.5354 C.ar    1  UNL1       -0.0205
     48 C          64.1594   82.5227   12.5583 C.ar    1  UNL1       -0.0042
     49 C          63.7372   81.0838   12.5234 C.ar    1  UNL1       -0.0003
     50 C          62.6800   80.5893   13.4655 C.ar    1  UNL1       -0.0000
     51 C          62.0449   81.5337   14.4426 C.ar    1  UNL1       -0.0003
     52 C          62.4670   82.9727   14.4776 C.ar    1  UNL1       -0.0042
@<TRIPOS>BOND
     1    19    20    1
     2    20    21    1
     3    20    14    1
     4    14    15   ar
     5    15    16   ar
     6    16    13    1
     7    13     7    1
     8     7     8    1
     9     7     9   am
    10     9    10    2
    11     9    11   am
    12     6    11    1
    13     6     2    1
    14     2     3    2
    15     2     4   am
    16     4     1    1
    17     1    25    1
    18    25    26    1
    19    27    26    1
    20    27    39    1
    21    39    40    1
    22    40    41   ar
    23    41    42   ar
    24    42    43   ar
    25    43    44   ar
    26    44    45   ar
    27    27    28    1
    28    28    29   am
    29    29    30    2
    30    29    32    1
    31    32    33    1
    32    33    34    1
    33    34    35   ar
    34    35    36   ar
    35    36    37   ar
    36    37    38   ar
    37     1    46    1
    38    46    47    1
    39    47    48   ar
    40    48    49   ar
    41    49    50   ar
    42    50    51   ar
    43    51    52   ar
    44     6    22    1
    45    22    23    1
    46    22    24    1
    47    16    17   ar
    48    17    18   ar
    49    18    14   ar
    50    45    40   ar
    51    38    34   ar
    52    52    47   ar
    53    11    12    1
    54     4     5    1
    55    28    31    1
@<TRIPOS>MOLECULE
*****
 52 55 0 0 0
SMALL
GASTEIGER

@<TRIPOS>ATOM
      1 C          61.7315   89.9597   10.7147 C.3     1  UNL1        0.0760
      2 C          61.5340   87.4377   11.3071 C.2     1  UNL1        0.2403
      3 O          60.2289   87.7021   11.9975 O.2     1  UNL1       -0.2733
      4 N          62.2854   88.5665   10.6657 N.am    1  UNL1       -0.3043
      5 H          63.1420   88.3930   10.2126 H       1  UNL1        0.1494
      6 C          62.0879   86.0446   11.2581 C.3     1  UNL1        0.1496
      7 N          63.1172   84.7465   14.8644 N.am    1  UNL1       -0.2567
      8 C          64.0533   85.1140   15.9773 C.3     1  UNL1        0.1168
      9 C          63.0706   85.5792   13.6177 C.2     1  UNL1        0.3046
     10 O          63.9602   86.7796   13.4839 O.2     1  UNL1       -0.2526
     11 N          62.1344   85.2117   12.5048 N.am    1  UNL1       -0.2824
     12 H          61.5506   84.4239   12.5927 H       1  UNL1        0.1514
     13 C          62.2276   83.5462   14.9982 C.3     1  UNL1        0.1413
     14 C          62.8398   81.0938   12.0526 C.ar    1  UNL1        0.0875
     15 N          62.8517   82.4788   12.6283 N.ar    1  UNL1       -0.2453
     16 C          62.3730   82.3951   14.0473 C.ar    1  UNL1        0.0858
     17 C          62.0651   80.9583   14.3487 C.ar    1  UNL1        0.0530
     18 S          62.3536   80.1540   13.1159 S.2     1  UNL1       -0.0705
     19 C          64.1148   81.6333    9.8541 C.3     1  UNL1        0.0069
     20 C          63.2431   80.7150   10.6584 C.3     1  UNL1        0.0465
     21 C          62.7749   79.4178   10.0684 C.3     1  UNL1        0.0069
     22 C          62.5951   85.4843    9.9625 C.3     1  UNL1        0.0270
     23 C          63.6221   84.3910    9.9691 C.3     1  UNL1        0.0022
     24 C          62.0754   86.0173    8.6603 C.3     1  UNL1        0.0022
     25 C          62.4696   91.0345   11.4561 C.3     1  UNL1        0.0216
     26 C          63.8449   91.4404   11.0159 C.3     1  UNL1        0.0217
     27 C          64.8282   91.9679   12.0184 C.3     1  UNL1        0.0792
     28 N          65.4457   93.3208   11.8231 N.am    1  UNL1       -0.2720
     29 C          66.7319   93.4555   11.0629 C.2     1  UNL1        0.4019
     30 O          67.4004   92.2372   10.4982 O.2     1  UNL1       -0.2264
     31 H          65.0070   94.1204   12.1937 H       1  UNL1        0.1527
     32 O          67.3495   94.8084   10.8676 O.3     1  UNL1       -0.4291
     33 C          66.4802   95.9933   10.5672 C.3     1  UNL1        0.2447
     34 C          66.0159   96.2462    9.1635 C.ar    1  UNL1        0.0714
     35 C          64.6613   96.7483    8.7598 C.ar    1  UNL1        0.1053
     36 N          64.6328   96.8538    7.2638 N.ar    1  UNL1       -0.2350
     37 C          65.9699   96.4170    6.7428 C.ar    1  UNL1        0.1343
     38 S          66.8247   96.0415    7.9169 S.2     1  UNL1       -0.0652
     39 C          65.1939   91.1424   13.2162 C.3     1  UNL1        0.0460
     40 C          66.1910   91.6620   14.2092 C.ar    1  UNL1       -0.0205
     41 C          67.6549   91.6417   13.8827 C.ar    1  UNL1       -0.0042
     42 C          68.6519   92.1613   14.8756 C.ar    1  UNL1       -0.0003
     43 C          68.1851   92.7011   16.1950 C.ar    1  UNL1       -0.0000
     44 C          66.7212   92.7214   16.5214 C.ar    1  UNL1       -0.0003
     45 C          65.7241   92.2018   15.5285 C.ar    1  UNL1       -0.0042
     46 C          60.4395   90.2779   10.0221 C.3     1  UNL1        0.0459
     47 C          59.9374   89.3868    8.9250 C.ar    1  UNL1       -0.0205
     48 C          59.9376   89.8717    7.5056 C.ar    1  UNL1       -0.0042
     49 C          59.4355   88.9806    6.4084 C.ar    1  UNL1       -0.0003
     50 C          58.9331   87.6045    6.7307 C.ar    1  UNL1       -0.0000
     51 C          58.9328   87.1195    8.1502 C.ar    1  UNL1       -0.0003
     52 C          59.4349   88.0106    9.2473 C.ar    1  UNL1       -0.0042
@<TRIPOS>BOND
     1    19    20    1
     2    20    21    1
     3    20    14    1
     4    14    15   ar
     5    15    16   ar
     6    16    13    1
     7    13     7    1
     8     7     8    1
     9     7     9   am
    10     9    10    2
    11     9    11   am
    12     6    11    1
    13     6     2    1
    14     2     3    2
    15     2     4   am
    16     4     1    1
    17     1    25    1
    18    25    26    1
    19    27    26    1
    20    27    39    1
    21    39    40    1
    22    40    41   ar
    23    41    42   ar
    24    42    43   ar
    25    43    44   ar
    26    44    45   ar
    27    27    28    1
    28    28    29   am
    29    29    30    2
    30    29    32    1
    31    32    33    1
    32    33    34    1
    33    34    35   ar
    34    35    36   ar
    35    36    37   ar
    36    37    38   ar
    37     1    46    1
    38    46    47    1
    39    47    48   ar
    40    48    49   ar
    41    49    50   ar
    42    50    51   ar
    43    51    52   ar
    44     6    22    1
    45    22    23    1
    46    22    24    1
    47    16    17   ar
    48    17    18   ar
    49    18    14   ar
    50    45    40   ar
    51    38    34   ar
    52    52    47   ar
    53    11    12    1
    54     4     5    1
    55    28    31    1
@<TRIPOS>MOLECULE
*****
 52 55 0 0 0
SMALL
GASTEIGER

@<TRIPOS>ATOM
      1 C          61.7087   89.8548   10.6408 C.3     1  UNL1        0.0760
      2 C          61.5396   87.3313   11.2355 C.2     1  UNL1        0.2403
      3 O          60.2011   87.5703   11.8689 O.2     1  UNL1       -0.2733
      4 N          62.2935   88.4736   10.6214 N.am    1  UNL1       -0.3043
      5 H          63.1720   88.3167   10.2057 H       1  UNL1        0.1494
      6 C          62.1244   85.9501   11.2161 C.3     1  UNL1        0.1496
      7 N          63.0224   84.6205   14.8460 N.am    1  UNL1       -0.2567
      8 C          63.9374   84.9621   15.9845 C.3     1  UNL1        0.1168
      9 C          63.0309   85.4560   13.6003 C.2     1  UNL1        0.3046
     10 O          63.9545   86.6332   13.4930 O.2     1  UNL1       -0.2526
     11 N          62.1158   85.1145   12.4619 N.am    1  UNL1       -0.2824
     12 H          61.5096   84.3420   12.5323 H       1  UNL1        0.1514
     13 C          62.0988   83.4435   14.9533 C.3     1  UNL1        0.1413
     14 C          62.7471   80.9170   12.0789 C.ar    1  UNL1        0.0875
     15 N          62.7051   82.3214   12.6041 N.ar    1  UNL1       -0.2453
     16 C          62.2744   82.2666   14.0399 C.ar    1  UNL1        0.0858
     17 C          62.0503   80.8283   14.4020 C.ar    1  UNL1        0.0530
     18 S          62.3424   79.9942   13.1901 S.2     1  UNL1       -0.0705
     19 C          62.7267   79.1587   10.1663 C.3     1  UNL1        0.0069
     20 C          63.1270   80.5073   10.6868 C.3     1  UNL1        0.0465
     21 C          63.9073   81.4462    9.8153 C.3     1  UNL1        0.0069
     22 C          62.7177   85.4045    9.9511 C.3     1  UNL1        0.0270
     23 C          62.2124   85.8781    8.6206 C.3     1  UNL1        0.0022
     24 C          63.8162   84.3853   10.0167 C.3     1  UNL1        0.0022
     25 C          62.4947   90.9939   11.2191 C.3     1  UNL1        0.0216
     26 C          63.7538   91.4543   10.5462 C.3     1  UNL1        0.0217
     27 C          64.8488   92.0847   11.3547 C.3     1  UNL1        0.0792
     28 N          64.6279   92.3915   12.8062 N.am    1  UNL1       -0.2720
     29 C          64.5804   91.2774   13.8095 C.2     1  UNL1        0.4019
     30 O          64.7537   89.8565   13.3612 O.2     1  UNL1       -0.2264
     31 H          64.5142   93.3241   13.1005 H       1  UNL1        0.1527
     32 O          64.3594   91.5842   15.2611 O.3     1  UNL1       -0.4291
     33 C          65.3947   92.3481   16.0322 C.3     1  UNL1        0.2447
     34 C          66.7914   92.4669   15.4983 C.ar    1  UNL1        0.0714
     35 C          67.3197   91.8108   14.2571 C.ar    1  UNL1        0.1053
     36 N          68.7599   92.2010   14.1036 N.ar    1  UNL1       -0.2350
     37 C          69.1217   93.0983   15.2499 C.ar    1  UNL1        0.1343
     38 S          67.9052   93.2626   16.1118 S.2     1  UNL1       -0.0652
     39 C          66.1647   92.4083   10.7115 C.3     1  UNL1        0.0460
     40 C          66.4816   93.8217   10.3216 C.ar    1  UNL1       -0.0205
     41 C          67.2182   94.1004    9.0450 C.ar    1  UNL1       -0.0042
     42 C          67.5350   95.5137    8.6552 C.ar    1  UNL1       -0.0003
     43 C          67.1152   96.6484    9.5419 C.ar    1  UNL1       -0.0000
     44 C          66.3786   96.3697   10.8185 C.ar    1  UNL1       -0.0003
     45 C          66.0618   94.9564   11.2083 C.ar    1  UNL1       -0.0042
     46 C          60.3380   90.0968   10.0817 C.3     1  UNL1        0.0459
     47 C          59.8856   89.3565    8.8580 C.ar    1  UNL1       -0.0205
     48 C          59.8873   90.0416    7.5237 C.ar    1  UNL1       -0.0042
     49 C          59.4349   89.3013    6.3000 C.ar    1  UNL1       -0.0003
     50 C          58.9809   87.8760    6.4107 C.ar    1  UNL1       -0.0000
     51 C          58.9792   87.1909    7.7451 C.ar    1  UNL1       -0.0003
     52 C          59.4316   87.9311    8.9688 C.ar    1  UNL1       -0.0042
@<TRIPOS>BOND
     1    19    20    1
     2    20    21    1
     3    20    14    1
     4    14    15   ar
     5    15    16   ar
     6    16    13    1
     7    13     7    1
     8     7     8    1
     9     7     9   am
    10     9    10    2
    11     9    11   am
    12     6    11    1
    13     6     2    1
    14     2     3    2
    15     2     4   am
    16     4     1    1
    17     1    25    1
    18    25    26    1
    19    27    26    1
    20    27    39    1
    21    39    40    1
    22    40    41   ar
    23    41    42   ar
    24    42    43   ar
    25    43    44   ar
    26    44    45   ar
    27    27    28    1
    28    28    29   am
    29    29    30    2
    30    29    32    1
    31    32    33    1
    32    33    34    1
    33    34    35   ar
    34    35    36   ar
    35    36    37   ar
    36    37    38   ar
    37     1    46    1
    38    46    47    1
    39    47    48   ar
    40    48    49   ar
    41    49    50   ar
    42    50    51   ar
    43    51    52   ar
    44     6    22    1
    45    22    23    1
    46    22    24    1
    47    16    17   ar
    48    17    18   ar
    49    18    14   ar
    50    45    40   ar
    51    38    34   ar
    52    52    47   ar
    53    11    12    1
    54     4     5    1
    55    28    31    1
@<TRIPOS>MOLECULE
*****
 52 55 0 0 0
SMALL
GASTEIGER

@<TRIPOS>ATOM
      1 C          62.1082   89.2463   10.5280 C.3     1  UNL1        0.0760
      2 C          61.9086   86.7164   11.0850 C.2     1  UNL1        0.2403
      3 O          60.7104   86.9996   11.9417 O.2     1  UNL1       -0.2733
      4 N          62.6076   87.8398   10.3781 N.am    1  UNL1       -0.3043
      5 H          63.3940   87.6540    9.8158 H       1  UNL1        0.1494
      6 C          62.4080   85.3100   10.9351 C.3     1  UNL1        0.1496
      7 N          63.2841   83.4404   14.3244 N.am    1  UNL1       -0.2567
      8 C          64.3267   83.4760   15.4022 C.3     1  UNL1        0.1168
      9 C          63.3673   84.3929   13.1687 C.2     1  UNL1        0.3046
     10 O          64.4932   85.3811   13.0908 O.2     1  UNL1       -0.2526
     11 N          62.3247   84.3574   12.0909 N.am    1  UNL1       -0.2824
     12 H          61.5858   83.7088   12.1420 H       1  UNL1        0.1514
     13 C          62.1583   82.4523   14.4023 C.3     1  UNL1        0.1413
     14 C          62.5419   79.5098   11.9002 C.ar    1  UNL1        0.0875
     15 N          62.5403   80.9785   12.2052 N.ar    1  UNL1       -0.2453
     16 C          62.2531   81.1479   13.6676 C.ar    1  UNL1        0.0858
     17 C          62.0772   79.7839   14.2665 C.ar    1  UNL1        0.0530
     18 S          62.2557   78.7715   13.1742 S.2     1  UNL1       -0.0705
     19 C          63.0331   77.4130   10.4468 C.3     1  UNL1        0.0069
     20 C          62.7868   78.8885   10.5570 C.3     1  UNL1        0.0465
     21 C          62.7854   79.7428    9.3240 C.3     1  UNL1        0.0069
     22 C          62.9906   84.8561    9.6296 C.3     1  UNL1        0.0270
     23 C          62.6706   85.5995    8.3666 C.3     1  UNL1        0.0022
     24 C          63.8932   83.6588    9.5869 C.3     1  UNL1        0.0022
     25 C          63.0285   90.3195   11.0291 C.3     1  UNL1        0.0216
     26 C          63.0083   90.7087   12.4776 C.3     1  UNL1        0.0217
     27 C          64.2628   91.1943   13.1413 C.3     1  UNL1        0.0792
     28 N          65.3342   91.8566   12.3268 N.am    1  UNL1       -0.2720
     29 C          66.0636   93.0479   12.8736 C.2     1  UNL1        0.4019
     30 O          65.7216   93.5768   14.2349 O.2     1  UNL1       -0.2264
     31 H          65.5587   91.5094   11.4333 H       1  UNL1        0.1527
     32 O          67.1350   93.7101   12.0590 O.3     1  UNL1       -0.4291
     33 C          67.0887   93.6417   10.5613 C.3     1  UNL1        0.2447
     34 C          66.6500   94.8375    9.7691 C.ar    1  UNL1        0.0714
     35 C          65.6007   95.8288   10.1769 C.ar    1  UNL1        0.1053
     36 N          65.4859   96.8559    9.0898 N.ar    1  UNL1       -0.2350
     37 C          66.4642   96.4995    8.0101 C.ar    1  UNL1        0.1343
     38 S          67.1837   95.2521    8.4300 S.2     1  UNL1       -0.0652
     39 C          64.4458   91.0177   14.6196 C.3     1  UNL1        0.0460
     40 C          64.0886   89.7135   15.2690 C.ar    1  UNL1       -0.0205
     41 C          63.2736   89.7011   16.5282 C.ar    1  UNL1       -0.0042
     42 C          62.9164   88.3970   17.1775 C.ar    1  UNL1       -0.0003
     43 C          63.3743   87.1053   16.5677 C.ar    1  UNL1       -0.0000
     44 C          64.1893   87.1177   15.3086 C.ar    1  UNL1       -0.0003
     45 C          64.5465   88.4218   14.6592 C.ar    1  UNL1       -0.0042
     46 C          60.6884   89.5795   10.1768 C.3     1  UNL1        0.0459
     47 C          60.0444   88.9481    8.9783 C.ar    1  UNL1       -0.0205
     48 C          59.8603   89.7432    7.7197 C.ar    1  UNL1       -0.0042
     49 C          59.2162   89.1118    6.5212 C.ar    1  UNL1       -0.0003
     50 C          58.7562   87.6853    6.5811 C.ar    1  UNL1       -0.0000
     51 C          58.9403   86.8902    7.8397 C.ar    1  UNL1       -0.0003
     52 C          59.5844   87.5216    9.0383 C.ar    1  UNL1       -0.0042
@<TRIPOS>BOND
     1    19    20    1
     2    20    21    1
     3    20    14    1
     4    14    15   ar
     5    15    16   ar
     6    16    13    1
     7    13     7    1
     8     7     8    1
     9     7     9   am
    10     9    10    2
    11     9    11   am
    12     6    11    1
    13     6     2    1
    14     2     3    2
    15     2     4   am
    16     4     1    1
    17     1    25    1
    18    25    26    1
    19    27    26    1
    20    27    39    1
    21    39    40    1
    22    40    41   ar
    23    41    42   ar
    24    42    43   ar
    25    43    44   ar
    26    44    45   ar
    27    27    28    1
    28    28    29   am
    29    29    30    2
    30    29    32    1
    31    32    33    1
    32    33    34    1
    33    34    35   ar
    34    35    36   ar
    35    36    37   ar
    36    37    38   ar
    37     1    46    1
    38    46    47    1
    39    47    48   ar
    40    48    49   ar
    41    49    50   ar
    42    50    51   ar
    43    51    52   ar
    44     6    22    1
    45    22    23    1
    46    22    24    1
    47    16    17   ar
    48    17    18   ar
    49    18    14   ar
    50    45    40   ar
    51    38    34   ar
    52    52    47   ar
    53    11    12    1
    54     4     5    1
    55    28    31    1
@<TRIPOS>MOLECULE
*****
 52 55 0 0 0
SMALL
GASTEIGER

@<TRIPOS>ATOM
      1 C          60.9964   88.2958   11.7799 C.3     1  UNL1        0.0760
      2 C          62.2661   86.2563   10.7907 C.2     1  UNL1        0.2403
      3 O          62.6205   87.0650    9.5782 O.2     1  UNL1       -0.2733
      4 N          61.4540   86.8717   11.8916 N.am    1  UNL1       -0.3043
      5 H          61.2213   86.3409   12.6875 H       1  UNL1        0.1494
      6 C          62.7237   84.8321   10.9025 C.3     1  UNL1        0.1496
      7 N          62.2890   81.7596   13.3765 N.am    1  UNL1       -0.2567
      8 C          62.4689   80.2705   13.3776 C.3     1  UNL1        0.1168
      9 C          62.5963   82.5513   12.1401 C.2     1  UNL1        0.3046
     10 O          63.0834   81.8538   10.9047 O.2     1  UNL1       -0.2526
     11 N          62.4164   84.0405   12.1390 N.am    1  UNL1       -0.2824
     12 H          62.0966   84.4983   12.9498 H       1  UNL1        0.1514
     13 C          61.8019   82.4572   14.6119 C.3     1  UNL1        0.1413
     14 C          63.1132   85.6756   16.3405 C.ar    1  UNL1        0.0875
     15 N          62.0011   84.7225   16.0169 N.ar    1  UNL1       -0.2453
     16 C          62.5648   83.6247   15.1642 C.ar    1  UNL1        0.0858
     17 C          64.0253   83.8993   14.9608 C.ar    1  UNL1        0.0530
     18 S          64.3643   85.1668   15.6878 S.2     1  UNL1       -0.0705
     19 C          62.6948   86.8162   18.6369 C.3     1  UNL1        0.0069
     20 C          62.9950   86.9191   17.1709 C.3     1  UNL1        0.0465
     21 C          63.1772   88.2655   16.5354 C.3     1  UNL1        0.0069
     22 C          63.4885   84.1997    9.7778 C.3     1  UNL1        0.0270
     23 C          64.6800   83.3375   10.0727 C.3     1  UNL1        0.0022
     24 C          63.0618   84.4294    8.3583 C.3     1  UNL1        0.0022
     25 C          61.8220   89.3977   12.3748 C.3     1  UNL1        0.0216
     26 C          63.3159   89.2722   12.4248 C.3     1  UNL1        0.0217
     27 C          64.1422   90.3777   13.0124 C.3     1  UNL1        0.0792
     28 N          64.3090   91.6677   12.2654 N.am    1  UNL1       -0.2720
     29 C          64.0135   91.7271   10.7960 C.2     1  UNL1        0.4019
     30 O          63.5513   90.4965   10.0736 O.2     1  UNL1       -0.2264
     31 H          64.6124   92.4755   12.7396 H       1  UNL1        0.1527
     32 O          64.1804   93.0171   10.0490 O.3     1  UNL1       -0.4291
     33 C          65.2811   93.9643   10.4245 C.3     1  UNL1        0.2447
     34 C          66.7012   93.6457   10.0614 C.ar    1  UNL1        0.0714
     35 C          67.6753   94.5809    9.4083 C.ar    1  UNL1        0.1053
     36 N          68.9727   93.8491    9.2308 N.ar    1  UNL1       -0.2350
     37 C          68.8003   92.4617    9.7742 C.ar    1  UNL1        0.1343
     38 S          67.3965   92.3360   10.2875 S.2     1  UNL1       -0.0652
     39 C          64.8016   90.1932   14.3470 C.3     1  UNL1        0.0460
     40 C          65.8761   91.1414   14.7902 C.ar    1  UNL1       -0.0205
     41 C          65.6341   92.0593   15.9515 C.ar    1  UNL1       -0.0042
     42 C          66.7086   93.0074   16.3947 C.ar    1  UNL1       -0.0003
     43 C          68.0252   93.0376   15.6765 C.ar    1  UNL1       -0.0000
     44 C          68.2672   92.1197   14.5151 C.ar    1  UNL1       -0.0003
     45 C          67.1927   91.1716   14.0720 C.ar    1  UNL1       -0.0042
     46 C          59.7131   88.6179   11.0731 C.3     1  UNL1        0.0459
     47 C          59.5949   88.3954    9.5944 C.ar    1  UNL1       -0.0205
     48 C          59.1815   87.0528    9.0687 C.ar    1  UNL1       -0.0042
     49 C          59.0633   86.8303    7.5900 C.ar    1  UNL1       -0.0003
     50 C          59.3585   87.9504    6.6371 C.ar    1  UNL1       -0.0000
     51 C          59.7720   89.2931    7.1628 C.ar    1  UNL1       -0.0003
     52 C          59.8901   89.5156    8.6415 C.ar    1  UNL1       -0.0042
@<TRIPOS>BOND
     1    19    20    1
     2    20    21    1
     3    20    14    1
     4    14    15   ar
     5    15    16   ar
     6    16    13    1
     7    13     7    1
     8     7     8    1
     9     7     9   am
    10     9    10    2
    11     9    11   am
    12     6    11    1
    13     6     2    1
    14     2     3    2
    15     2     4   am
    16     4     1    1
    17     1    25    1
    18    25    26    1
    19    27    26    1
    20    27    39    1
    21    39    40    1
    22    40    41   ar
    23    41    42   ar
    24    42    43   ar
    25    43    44   ar
    26    44    45   ar
    27    27    28    1
    28    28    29   am
    29    29    30    2
    30    29    32    1
    31    32    33    1
    32    33    34    1
    33    34    35   ar
    34    35    36   ar
    35    36    37   ar
    36    37    38   ar
    37     1    46    1
    38    46    47    1
    39    47    48   ar
    40    48    49   ar
    41    49    50   ar
    42    50    51   ar
    43    51    52   ar
    44     6    22    1
    45    22    23    1
    46    22    24    1
    47    16    17   ar
    48    17    18   ar
    49    18    14   ar
    50    45    40   ar
    51    38    34   ar
    52    52    47   ar
    53    11    12    1
    54     4     5    1
    55    28    31    1
@<TRIPOS>MOLECULE
*****
 52 55 0 0 0
SMALL
GASTEIGER

@<TRIPOS>ATOM
      1 C          63.9052   90.8608   15.0286 C.3     1  UNL1        0.0760
      2 C          64.1828   88.2840   15.2112 C.2     1  UNL1        0.2403
      3 O          65.5216   88.3807   14.5418 O.2     1  UNL1       -0.2733
      4 N          63.3746   89.5240   15.4546 N.am    1  UNL1       -0.3043
      5 H          62.4958   89.4605   15.8940 H       1  UNL1        0.1494
      6 C          63.6521   86.9472   15.6372 C.3     1  UNL1        0.1496
      7 N          63.7174   84.5864   12.4478 N.am    1  UNL1       -0.2567
      8 C          63.3498   84.6337   10.9943 C.3     1  UNL1        0.1168
      9 C          63.5010   85.7904   13.3157 C.2     1  UNL1        0.3046
     10 O          62.9169   87.0419   12.7302 O.2     1  UNL1       -0.2526
     11 N          63.8686   85.7431   14.7692 N.am    1  UNL1       -0.2824
     12 H          64.2519   84.9217   15.1535 H       1  UNL1        0.1514
     13 C          64.3015   83.3350   13.0333 C.3     1  UNL1        0.1413
     14 C          62.9329   79.9902   11.6174 C.ar    1  UNL1        0.0875
     15 N          63.6968   81.2699   11.4475 N.ar    1  UNL1       -0.2453
     16 C          63.6627   82.0069   12.7535 C.ar    1  UNL1        0.0858
     17 C          62.8777   81.1828   13.7305 C.ar    1  UNL1        0.0530
     18 S          62.4267   79.9363   13.0284 S.2     1  UNL1       -0.0705
     19 C          62.7283   77.4932   10.9293 C.3     1  UNL1        0.0069
     20 C          62.7137   78.9474   10.5616 C.3     1  UNL1        0.0465
     21 C          62.4798   79.3588    9.1383 C.3     1  UNL1        0.0069
     22 C          62.9050   86.8146   16.9311 C.3     1  UNL1        0.0270
     23 C          62.9836   87.9053   17.9578 C.3     1  UNL1        0.0022
     24 C          62.0793   85.5912   17.1982 C.3     1  UNL1        0.0022
     25 C          63.5297   91.4250   13.6905 C.3     1  UNL1        0.0216
     26 C          64.1367   90.8592   12.4410 C.3     1  UNL1        0.0217
     27 C          63.9831   91.5851   11.1373 C.3     1  UNL1        0.0792
     28 N          63.2038   90.9603   10.0182 N.am    1  UNL1       -0.2720
     29 C          61.8595   90.3520   10.2886 C.2     1  UNL1        0.4019
     30 O          61.2946   90.3687   11.6781 O.2     1  UNL1       -0.2264
     31 H          63.5746   90.9494    9.1063 H       1  UNL1        0.1527
     32 O          61.0802   89.7272    9.1696 O.3     1  UNL1       -0.4291
     33 C          60.2038   88.5398    9.4376 C.3     1  UNL1        0.2447
     34 C          60.3233   87.3116    8.5847 C.ar    1  UNL1        0.0714
     35 C          59.2536   86.7464    7.6981 C.ar    1  UNL1        0.1053
     36 N          59.8027   85.5185    7.0341 N.ar    1  UNL1       -0.2350
     37 C          61.2118   85.3248    7.5105 C.ar    1  UNL1        0.1343
     38 S          61.5336   86.4330    8.4688 S.2     1  UNL1       -0.0652
     39 C          64.6087   92.9359   10.9527 C.3     1  UNL1        0.0460
     40 C          65.9829   93.0516   10.3626 C.ar    1  UNL1       -0.0205
     41 C          66.3980   94.3161    9.6708 C.ar    1  UNL1       -0.0042
     42 C          67.7722   94.4318    9.0807 C.ar    1  UNL1       -0.0003
     43 C          68.7313   93.2831    9.1825 C.ar    1  UNL1       -0.0000
     44 C          68.3162   92.0185    9.8744 C.ar    1  UNL1       -0.0003
     45 C          66.9421   91.9028   10.4644 C.ar    1  UNL1       -0.0042
     46 C          64.8115   91.6333   15.9408 C.3     1  UNL1        0.0459
     47 C          66.1959   91.9959   15.4916 C.ar    1  UNL1       -0.0205
     48 C          66.7513   91.4112   14.2269 C.ar    1  UNL1       -0.0042
     49 C          68.1358   91.7738   13.7777 C.ar    1  UNL1       -0.0003
     50 C          68.9648   92.7213   14.5932 C.ar    1  UNL1       -0.0000
     51 C          68.4094   93.3061   15.8579 C.ar    1  UNL1       -0.0003
     52 C          67.0249   92.9434   16.3072 C.ar    1  UNL1       -0.0042
@<TRIPOS>BOND
     1    19    20    1
     2    20    21    1
     3    20    14    1
     4    14    15   ar
     5    15    16   ar
     6    16    13    1
     7    13     7    1
     8     7     8    1
     9     7     9   am
    10     9    10    2
    11     9    11   am
    12     6    11    1
    13     6     2    1
    14     2     3    2
    15     2     4   am
    16     4     1    1
    17     1    25    1
    18    25    26    1
    19    27    26    1
    20    27    39    1
    21    39    40    1
    22    40    41   ar
    23    41    42   ar
    24    42    43   ar
    25    43    44   ar
    26    44    45   ar
    27    27    28    1
    28    28    29   am
    29    29    30    2
    30    29    32    1
    31    32    33    1
    32    33    34    1
    33    34    35   ar
    34    35    36   ar
    35    36    37   ar
    36    37    38   ar
    37     1    46    1
    38    46    47    1
    39    47    48   ar
    40    48    49   ar
    41    49    50   ar
    42    50    51   ar
    43    51    52   ar
    44     6    22    1
    45    22    23    1
    46    22    24    1
    47    16    17   ar
    48    17    18   ar
    49    18    14   ar
    50    45    40   ar
    51    38    34   ar
    52    52    47   ar
    53    11    12    1
    54     4     5    1
    55    28    31    1
@<TRIPOS>MOLECULE
*****
 52 55 0 0 0
SMALL
GASTEIGER

@<TRIPOS>ATOM
      1 C          64.8252   91.8538   11.5719 C.3     1  UNL1        0.0760
      2 C          62.8148   90.5522   10.5646 C.2     1  UNL1        0.2403
      3 O          62.7525   91.5285    9.4276 O.2     1  UNL1       -0.2733
      4 N          63.8512   90.7149   11.6368 N.am    1  UNL1       -0.3043
      5 H          63.8921   90.0741   12.3832 H       1  UNL1        0.1494
      6 C          61.8408   89.4133   10.6296 C.3     1  UNL1        0.1496
      7 N          61.6859   86.1449    8.3838 N.am    1  UNL1       -0.2567
      8 C          60.8120   85.5348    7.3283 C.3     1  UNL1        0.1168
      9 C          61.3265   87.4740    8.9789 C.2     1  UNL1        0.3046
     10 O          60.0931   88.1931    8.5186 O.2     1  UNL1       -0.2526
     11 N          62.2003   88.0841   10.0345 N.am    1  UNL1       -0.2824
     12 H          63.0098   87.6122   10.3366 H       1  UNL1        0.1514
     13 C          62.9192   85.4259    8.8442 C.3     1  UNL1        0.1413
     14 C          62.9623   82.6494   11.5561 C.ar    1  UNL1        0.0875
     15 N          63.1054   83.0895   10.1293 N.ar    1  UNL1       -0.2453
     16 C          62.8730   84.5704   10.0754 C.ar    1  UNL1        0.0858
     17 C          62.5863   85.0455   11.4690 C.ar    1  UNL1        0.0530
     18 S          62.6415   83.8583   12.3841 S.2     1  UNL1       -0.0705
     19 C          63.4423   81.0042   13.5088 C.3     1  UNL1        0.0069
     20 C          63.1135   81.2466   12.0655 C.3     1  UNL1        0.0465
     21 C          62.9360   80.0864   11.1316 C.3     1  UNL1        0.0069
     22 C          60.5074   89.6035   11.2897 C.3     1  UNL1        0.0270
     23 C          59.7835   90.9104   11.1552 C.3     1  UNL1        0.0022
     24 C          59.8978   88.4868   12.0843 C.3     1  UNL1        0.0022
     25 C          65.1578   92.6279   12.8128 C.3     1  UNL1        0.0216
     26 C          64.4898   92.2860   14.1116 C.3     1  UNL1        0.0217
     27 C          65.0356   91.1819   14.9678 C.3     1  UNL1        0.0792
     28 N          64.1414   90.4799   15.9465 N.am    1  UNL1       -0.2720
     29 C          63.2750   89.3439   15.4895 C.2     1  UNL1        0.4019
     30 O          63.3027   88.9099   14.0539 O.2     1  UNL1       -0.2264
     31 H          64.1233   90.7647   16.8887 H       1  UNL1        0.1527
     32 O          62.3808   88.6419   16.4681 O.3     1  UNL1       -0.4291
     33 C          62.8953   87.4661   17.2444 C.3     1  UNL1        0.2447
     34 C          63.1686   86.1674   16.5453 C.ar    1  UNL1        0.0714
     35 C          62.2861   84.9546   16.5615 C.ar    1  UNL1        0.1053
     36 N          62.9445   83.8911   15.7335 N.ar    1  UNL1       -0.2350
     37 C          64.2339   84.4466   15.2055 C.ar    1  UNL1        0.1343
     38 S          64.3724   85.8534   15.7072 S.2     1  UNL1       -0.0652
     39 C          66.4755   90.7798   14.8454 C.3     1  UNL1        0.0460
     40 C          67.5592   91.7862   15.0959 C.ar    1  UNL1       -0.0205
     41 C          67.3876   92.8223   16.1668 C.ar    1  UNL1       -0.0042
     42 C          68.4713   93.8287   16.4173 C.ar    1  UNL1       -0.0003
     43 C          69.7266   93.7990   15.5967 C.ar    1  UNL1       -0.0000
     44 C          69.8982   92.7629   14.5257 C.ar    1  UNL1       -0.0003
     45 C          68.8145   91.7565   14.2753 C.ar    1  UNL1       -0.0042
     46 C          65.4666   92.2185   10.2658 C.3     1  UNL1        0.0459
     47 C          66.0546   93.5852   10.0749 C.ar    1  UNL1       -0.0205
     48 C          67.3286   93.7521    9.3010 C.ar    1  UNL1       -0.0042
     49 C          67.9166   95.1188    9.1101 C.ar    1  UNL1       -0.0003
     50 C          67.2307   96.3185    9.6931 C.ar    1  UNL1       -0.0000
     51 C          65.9566   96.1517   10.4670 C.ar    1  UNL1       -0.0003
     52 C          65.3686   94.7850   10.6580 C.ar    1  UNL1       -0.0042
@<TRIPOS>BOND
     1    19    20    1
     2    20    21    1
     3    20    14    1
     4    14    15   ar
     5    15    16   ar
     6    16    13    1
     7    13     7    1
     8     7     8    1
     9     7     9   am
    10     9    10    2
    11     9    11   am
    12     6    11    1
    13     6     2    1
    14     2     3    2
    15     2     4   am
    16     4     1    1
    17     1    25    1
    18    25    26    1
    19    27    26    1
    20    27    39    1
    21    39    40    1
    22    40    41   ar
    23    41    42   ar
    24    42    43   ar
    25    43    44   ar
    26    44    45   ar
    27    27    28    1
    28    28    29   am
    29    29    30    2
    30    29    32    1
    31    32    33    1
    32    33    34    1
    33    34    35   ar
    34    35    36   ar
    35    36    37   ar
    36    37    38   ar
    37     1    46    1
    38    46    47    1
    39    47    48   ar
    40    48    49   ar
    41    49    50   ar
    42    50    51   ar
    43    51    52   ar
    44     6    22    1
    45    22    23    1
    46    22    24    1
    47    16    17   ar
    48    17    18   ar
    49    18    14   ar
    50    45    40   ar
    51    38    34   ar
    52    52    47   ar
    53    11    12    1
    54     4     5    1
    55    28    31    1
