@<TRIPOS>MOLECULE
*****
 26 28 0 0 0
SMALL
GASTEIGER

@<TRIPOS>ATOM
      1 C          64.4469   86.9635   14.6803 C.3     1  UNL1        0.2066
      2 C          63.9734   88.0313   13.7393 C.2     1  UNL1        0.3580
      3 N          63.1290   87.6664   12.5545 N.2     1  UNL1       -0.0039
      4 C          62.6555   88.7342   11.6135 C.2     1  UNL1        0.3159
      5 C          63.0264   90.1671   11.8573 C.3     1  UNL1        0.2333
      6 C          63.8708   90.5321   13.0421 C.2     1  UNL1        0.3644
      7 O          64.2417   91.9648   13.2860 O.2     1  UNL1       -0.2422
      8 N          64.3443   89.4641   13.9831 N.am    1  UNL1        0.0289
      9 N          61.8112   88.3692   10.4287 N.pl3   1  UNL1       -0.1888
     10 C          61.8344   86.9679    9.8943 C.3     1  UNL1        0.2343
     11 C          60.9900   86.6029    8.7094 C.3     1  UNL1        0.1929
     12 O          60.1224   87.6393    8.0590 O.3     1  UNL1       -0.3449
     13 C          60.0992   89.0408    8.5934 C.3     1  UNL1        0.1929
     14 C          60.9435   89.4057    9.7782 C.3     1  UNL1        0.2343
     15 N          62.9383   85.0185   13.8488 N.am    1  UNL1       -0.2833
     16 C          64.2711   85.5173   14.3231 C.2     1  UNL1        0.2387
     17 O          65.4280   84.5698   14.4404 O.2     1  UNL1       -0.2741
     18 H          62.1790   85.6404   13.7719 H       1  UNL1        0.1549
     19 C          62.9164   81.6498   11.7508 C.ar    1  UNL1        0.1400
     20 C          62.4109   80.6799   12.7773 C.ar    1  UNL1        0.0370
     21 C          62.0813   81.1561   14.1610 C.ar    1  UNL1        0.0044
     22 C          62.2571   82.6023   14.5181 C.ar    1  UNL1        0.0149
     23 C          62.7625   83.5723   13.4916 C.ar    1  UNL1        0.0534
     24 C          63.0921   83.0960   12.1080 C.ar    1  UNL1        0.0515
     25 C          62.9002   79.7739    9.9535 C.3     1  UNL1        0.2525
     26 O          63.2460   81.1736   10.3671 O.3     1  UNL1       -0.4714
@<TRIPOS>BOND
     1    25    26    1
     2    26    19    1
     3    19    20   ar
     4    20    21   ar
     5    21    22   ar
     6    22    23   ar
     7    23    15    1
     8    15    16   am
     9    16    17    2
    10    16     1    1
    11     1     2    1
    12     2     3    1
    13     3     4    2
    14     4     9    1
    15     9    10    1
    16    10    11    1
    17    11    12    1
    18    12    13    1
    19    13    14    1
    20     4     5    1
    21     5     6    1
    22     6     7    2
    23     6     8    1
    24    23    24   ar
    25    24    19   ar
    26     8     2    2
    27    14     9    1
    28    15    18    1
@<TRIPOS>MOLECULE
*****
 26 28 0 0 0
SMALL
GASTEIGER

@<TRIPOS>ATOM
      1 C          63.7920   83.4251   10.2057 C.3     1  UNL1        0.2066
      2 C          63.6966   83.1853   11.6834 C.2     1  UNL1        0.3580
      3 N          63.6003   84.3473   12.6270 N.2     1  UNL1       -0.0039
      4 C          63.5048   84.1076   14.1046 C.2     1  UNL1        0.3159
      5 C          63.5056   82.7058   14.6386 C.3     1  UNL1        0.2333
      6 C          63.6019   81.5438   13.6950 C.2     1  UNL1        0.3644
      7 O          63.6027   80.1421   14.2289 O.2     1  UNL1       -0.2422
      8 N          63.6973   81.7836   12.2173 N.am    1  UNL1        0.0289
      9 N          63.4086   85.2696   15.0483 N.pl3   1  UNL1       -0.1888
     10 C          62.6669   85.1241   16.3439 C.3     1  UNL1        0.2343
     11 C          62.5706   86.2861   17.2876 C.3     1  UNL1        0.1929
     12 O          63.2161   87.5935   16.9357 O.3     1  UNL1       -0.3449
     13 C          63.9579   87.7390   15.6400 C.3     1  UNL1        0.1929
     14 C          64.0541   86.5771   14.6963 C.3     1  UNL1        0.2343
     15 N          62.0876   85.3782   10.3801 N.am    1  UNL1       -0.2833
     16 C          63.1077   84.6107    9.5925 C.2     1  UNL1        0.2387
     17 O          63.4437   85.0290    8.1917 O.2     1  UNL1       -0.2741
     18 H          61.8671   85.1037   11.2995 H       1  UNL1        0.1549
     19 C          61.0911   89.1367    9.5863 C.ar    1  UNL1        0.1400
     20 C          60.0348   88.9351    8.5406 C.ar    1  UNL1        0.0370
     21 C          59.6628   87.5479    8.1080 C.ar    1  UNL1        0.0044
     22 C          60.3470   86.3622    8.7211 C.ar    1  UNL1        0.0149
     23 C          61.4033   86.5638    9.7669 C.ar    1  UNL1        0.0534
     24 C          61.7753   87.9511   10.1994 C.ar    1  UNL1        0.0515
     25 C          62.8884   90.8475   10.3562 C.3     1  UNL1        0.2525
     26 O          61.4632   90.5240   10.0188 O.3     1  UNL1       -0.4714
@<TRIPOS>BOND
     1    25    26    1
     2    26    19    1
     3    19    20   ar
     4    20    21   ar
     5    21    22   ar
     6    22    23   ar
     7    23    15    1
     8    15    16   am
     9    16    17    2
    10    16     1    1
    11     1     2    1
    12     2     3    1
    13     3     4    2
    14     4     9    1
    15     9    10    1
    16    10    11    1
    17    11    12    1
    18    12    13    1
    19    13    14    1
    20     4     5    1
    21     5     6    1
    22     6     7    2
    23     6     8    1
    24    23    24   ar
    25    24    19   ar
    26     8     2    2
    27    14     9    1
    28    15    18    1
@<TRIPOS>MOLECULE
*****
 26 28 0 0 0
SMALL
GASTEIGER

@<TRIPOS>ATOM
      1 C          63.1356   90.5547   12.9669 C.3     1  UNL1        0.2066
      2 C          64.4664   91.2424   13.0441 C.2     1  UNL1        0.3580
      3 N          64.8506   92.2516   12.0031 N.2     1  UNL1       -0.0039
      4 C          66.1814   92.9393   12.0802 C.2     1  UNL1        0.3159
      5 C          67.1281   92.6177   13.1985 C.3     1  UNL1        0.2333
      6 C          66.7439   91.6084   14.2395 C.2     1  UNL1        0.3644
      7 O          67.6905   91.2868   15.3577 O.2     1  UNL1       -0.2422
      8 N          65.4130   90.9208   14.1623 N.am    1  UNL1        0.0289
      9 N          66.5656   93.9485   11.0392 N.pl3   1  UNL1       -0.1888
     10 C          67.2483   93.5041    9.7796 C.3     1  UNL1        0.2343
     11 C          67.6325   94.5134    8.7386 C.3     1  UNL1        0.1929
     12 O          67.3340   95.9670    8.9571 O.3     1  UNL1       -0.3449
     13 C          66.6514   96.4115   10.2167 C.3     1  UNL1        0.1929
     14 C          66.2672   95.4023   11.2577 C.3     1  UNL1        0.2343
     15 N          61.9219   88.5731   11.8050 N.am    1  UNL1       -0.2833
     16 C          62.7380   89.8284   11.7161 C.2     1  UNL1        0.2387
     17 O          63.1566   90.3576   10.3764 O.2     1  UNL1       -0.2741
     18 H          61.6472   88.2257   12.6843 H       1  UNL1        0.1549
     19 C          60.0518   87.6812    8.4201 C.ar    1  UNL1        0.1400
     20 C          60.7292   86.3944    8.0526 C.ar    1  UNL1        0.0370
     21 C          61.8042   85.8337    8.9358 C.ar    1  UNL1        0.0044
     22 C          62.2018   86.5600   10.1866 C.ar    1  UNL1        0.0149
     23 C          61.5244   87.8468   10.5541 C.ar    1  UNL1        0.0534
     24 C          60.4494   88.4074    9.6709 C.ar    1  UNL1        0.0515
     25 C          59.2727   89.4110    6.6452 C.3     1  UNL1        0.2525
     26 O          58.9768   88.2418    7.5369 O.3     1  UNL1       -0.4714
@<TRIPOS>BOND
     1    25    26    1
     2    26    19    1
     3    19    20   ar
     4    20    21   ar
     5    21    22   ar
     6    22    23   ar
     7    23    15    1
     8    15    16   am
     9    16    17    2
    10    16     1    1
    11     1     2    1
    12     2     3    1
    13     3     4    2
    14     4     9    1
    15     9    10    1
    16    10    11    1
    17    11    12    1
    18    12    13    1
    19    13    14    1
    20     4     5    1
    21     5     6    1
    22     6     7    2
    23     6     8    1
    24    23    24   ar
    25    24    19   ar
    26     8     2    2
    27    14     9    1
    28    15    18    1
@<TRIPOS>MOLECULE
*****
 26 28 0 0 0
SMALL
GASTEIGER

@<TRIPOS>ATOM
      1 C          61.3100   89.9686   11.4974 C.3     1  UNL1        0.2066
      2 C          61.1557   88.6539   10.7920 C.2     1  UNL1        0.3580
      3 N          61.9926   87.4791   11.2035 N.2     1  UNL1       -0.0039
      4 C          61.8382   86.1644   10.4981 C.2     1  UNL1        0.3159
      5 C          60.8469   86.0244    9.3810 C.3     1  UNL1        0.2333
      6 C          60.0100   87.1992    8.9695 C.2     1  UNL1        0.3644
      7 O          59.0187   87.0593    7.8525 O.2     1  UNL1       -0.2422
      8 N          60.1644   88.5140    9.6750 N.am    1  UNL1        0.0289
      9 N          62.6752   84.9896   10.9096 N.pl3   1  UNL1       -0.1888
     10 C          63.4063   84.1895    9.8727 C.3     1  UNL1        0.2343
     11 C          64.2432   83.0147   10.2842 C.3     1  UNL1        0.1929
     12 O          64.3490   82.6399   11.7328 O.3     1  UNL1       -0.3449
     13 C          63.6179   83.4400   12.7698 C.3     1  UNL1        0.1929
     14 C          62.7809   84.6148   12.3583 C.3     1  UNL1        0.2343
     15 N          63.2007   90.7546   13.0967 N.am    1  UNL1       -0.2833
     16 C          62.6762   90.5519   11.7061 C.2     1  UNL1        0.2387
     17 O          63.5177   90.9326   10.5242 O.2     1  UNL1       -0.2741
     18 H          62.6484   90.5047   13.8724 H       1  UNL1        0.1549
     19 C          66.4592   92.9568   12.5651 C.ar    1  UNL1        0.1400
     20 C          67.2989   92.5046   13.7227 C.ar    1  UNL1        0.0370
     21 C          66.7726   91.4690   14.6717 C.ar    1  UNL1        0.0044
     22 C          65.4066   90.8857   14.4631 C.ar    1  UNL1        0.0149
     23 C          64.5668   91.3379   13.3054 C.ar    1  UNL1        0.0534
     24 C          65.0931   92.3735   12.3564 C.ar    1  UNL1        0.0515
     25 C          66.2223   95.2648   11.3959 C.3     1  UNL1        0.2525
     26 O          66.9854   93.9924   11.6161 O.3     1  UNL1       -0.4714
@<TRIPOS>BOND
     1    25    26    1
     2    26    19    1
     3    19    20   ar
     4    20    21   ar
     5    21    22   ar
     6    22    23   ar
     7    23    15    1
     8    15    16   am
     9    16    17    2
    10    16     1    1
    11     1     2    1
    12     2     3    1
    13     3     4    2
    14     4     9    1
    15     9    10    1
    16    10    11    1
    17    11    12    1
    18    12    13    1
    19    13    14    1
    20     4     5    1
    21     5     6    1
    22     6     7    2
    23     6     8    1
    24    23    24   ar
    25    24    19   ar
    26     8     2    2
    27    14     9    1
    28    15    18    1
@<TRIPOS>MOLECULE
*****
 26 28 0 0 0
SMALL
GASTEIGER

@<TRIPOS>ATOM
      1 C          62.9973   90.4042   13.6588 C.3     1  UNL1        0.2066
      2 C          64.1972   91.2981   13.7633 C.2     1  UNL1        0.3580
      3 N          64.7981   91.8948   12.5252 N.2     1  UNL1       -0.0039
      4 C          65.9980   92.7887   12.6297 C.2     1  UNL1        0.3159
      5 C          66.5972   93.0860   13.9724 C.3     1  UNL1        0.2333
      6 C          65.9963   92.4894   15.2105 C.2     1  UNL1        0.3644
      7 O          66.5954   92.7867   16.5531 O.2     1  UNL1       -0.2422
      8 N          64.7963   91.5954   15.1059 N.am    1  UNL1        0.0289
      9 N          66.5989   93.3854   11.3916 N.pl3   1  UNL1       -0.1888
     10 C          67.3847   92.5231   10.4488 C.3     1  UNL1        0.2343
     11 C          67.9856   93.1198    9.2106 C.3     1  UNL1        0.1929
     12 O          67.8007   94.5787    8.9154 O.3     1  UNL1       -0.3449
     13 C          67.0149   95.4411    9.8582 C.3     1  UNL1        0.1929
     14 C          66.4140   94.8444   11.0963 C.3     1  UNL1        0.2343
     15 N          62.2490   88.7956   11.7607 N.am    1  UNL1       -0.2833
     16 C          63.1056   89.0822   12.9582 C.2     1  UNL1        0.2387
     17 O          64.0705   88.0469   13.4552 O.2     1  UNL1       -0.2741
     18 H          61.6157   89.4752   11.4345 H       1  UNL1        0.1549
     19 C          62.5650   84.8858   11.1580 C.ar    1  UNL1        0.1400
     20 C          62.5739   84.8298    9.6591 C.ar    1  UNL1        0.0370
     21 C          62.4745   86.0958    8.8607 C.ar    1  UNL1        0.0044
     22 C          62.3662   87.4177    9.5612 C.ar    1  UNL1        0.0149
     23 C          62.3573   87.4737   11.0601 C.ar    1  UNL1        0.0534
     24 C          62.4567   86.2077   11.8585 C.ar    1  UNL1        0.0515
     25 C          63.3602   82.4224   11.3802 C.3     1  UNL1        0.2525
     26 O          62.6644   83.6198   11.9564 O.3     1  UNL1       -0.4714
@<TRIPOS>BOND
     1    25    26    1
     2    26    19    1
     3    19    20   ar
     4    20    21   ar
     5    21    22   ar
     6    22    23   ar
     7    23    15    1
     8    15    16   am
     9    16    17    2
    10    16     1    1
    11     1     2    1
    12     2     3    1
    13     3     4    2
    14     4     9    1
    15     9    10    1
    16    10    11    1
    17    11    12    1
    18    12    13    1
    19    13    14    1
    20     4     5    1
    21     5     6    1
    22     6     7    2
    23     6     8    1
    24    23    24   ar
    25    24    19   ar
    26     8     2    2
    27    14     9    1
    28    15    18    1
@<TRIPOS>MOLECULE
*****
 26 28 0 0 0
SMALL
GASTEIGER

@<TRIPOS>ATOM
      1 C          61.7043   89.2821   10.9347 C.3     1  UNL1        0.2066
      2 C          62.0550   87.8379   10.7322 C.2     1  UNL1        0.3580
      3 N          62.3810   86.9725   11.9132 N.2     1  UNL1       -0.0039
      4 C          62.7317   85.5282   11.7107 C.2     1  UNL1        0.3159
      5 C          62.7565   84.9493   10.3271 C.3     1  UNL1        0.2333
      6 C          62.4305   85.8147    9.1461 C.2     1  UNL1        0.3644
      7 O          62.4553   85.2358    7.7625 O.2     1  UNL1       -0.2422
      8 N          62.0798   87.2590    9.3486 N.am    1  UNL1        0.0289
      9 N          63.0576   84.6628   12.8917 N.pl3   1  UNL1       -0.1888
     10 C          62.6932   83.2078   12.8788 C.3     1  UNL1        0.2343
     11 C          63.0191   82.3424   14.0598 C.3     1  UNL1        0.1929
     12 O          63.7095   82.9320   15.2538 O.3     1  UNL1       -0.3449
     13 C          64.0740   84.3870   15.2669 C.3     1  UNL1        0.1929
     14 C          63.7480   85.2524   14.0858 C.3     1  UNL1        0.2343
     15 N          63.3758   90.0431   12.7724 N.am    1  UNL1       -0.2833
     16 C          62.7443   90.2446   11.4269 C.2     1  UNL1        0.2387
     17 O          63.1526   91.4086   10.5734 O.2     1  UNL1       -0.2741
     18 H          63.1078   89.2791   13.3325 H       1  UNL1        0.1549
     19 C          66.0628   92.9635   12.8130 C.ar    1  UNL1        0.1400
     20 C          66.4956   92.9305   14.2488 C.ar    1  UNL1        0.0370
     21 C          65.8885   91.9351   15.1924 C.ar    1  UNL1        0.0044
     22 C          64.8486   90.9726   14.7003 C.ar    1  UNL1        0.0149
     23 C          64.4158   91.0056   13.2646 C.ar    1  UNL1        0.0534
     24 C          65.0229   92.0010   12.3209 C.ar    1  UNL1        0.0515
     25 C          66.3142   93.9249   10.4125 C.3     1  UNL1        0.2525
     26 O          66.6699   93.9589   11.8693 O.3     1  UNL1       -0.4714
@<TRIPOS>BOND
     1    25    26    1
     2    26    19    1
     3    19    20   ar
     4    20    21   ar
     5    21    22   ar
     6    22    23   ar
     7    23    15    1
     8    15    16   am
     9    16    17    2
    10    16     1    1
    11     1     2    1
    12     2     3    1
    13     3     4    2
    14     4     9    1
    15     9    10    1
    16    10    11    1
    17    11    12    1
    18    12    13    1
    19    13    14    1
    20     4     5    1
    21     5     6    1
    22     6     7    2
    23     6     8    1
    24    23    24   ar
    25    24    19   ar
    26     8     2    2
    27    14     9    1
    28    15    18    1
@<TRIPOS>MOLECULE
*****
 26 28 0 0 0
SMALL
GASTEIGER

@<TRIPOS>ATOM
      1 C          61.6800   89.0471   11.1072 C.3     1  UNL1        0.2066
      2 C          62.0452   87.6210   10.8194 C.2     1  UNL1        0.3580
      3 N          62.3228   86.6750   11.9499 N.2     1  UNL1       -0.0039
      4 C          62.6880   85.2489   11.6621 C.2     1  UNL1        0.3159
      5 C          62.7756   84.7688   10.2436 C.3     1  UNL1        0.2333
      6 C          62.4981   85.7148    9.1131 C.2     1  UNL1        0.3644
      7 O          62.5857   85.2347    7.6948 O.2     1  UNL1       -0.2422
      8 N          62.1328   87.1409    9.4010 N.am    1  UNL1        0.0289
      9 N          62.9655   84.3030   12.7926 N.pl3   1  UNL1       -0.1888
     10 C          63.4981   84.8252   14.0939 C.3     1  UNL1        0.2343
     11 C          63.7757   83.8792   15.2244 C.3     1  UNL1        0.1929
     12 O          63.5207   82.4110   15.0536 O.3     1  UNL1       -0.3449
     13 C          62.9881   81.8887   13.7522 C.3     1  UNL1        0.1929
     14 C          62.7105   82.8347   12.6217 C.3     1  UNL1        0.2343
     15 N          63.5762   90.8231   11.0916 N.am    1  UNL1       -0.2833
     16 C          62.6377   89.9314   11.8493 C.2     1  UNL1        0.2387
     17 O          62.6570   89.9241   13.3492 O.2     1  UNL1       -0.2741
     18 H          63.5636   90.8279   10.1072 H       1  UNL1        0.1549
     19 C          65.8331   92.2941   14.0058 C.ar    1  UNL1        0.1400
     20 C          66.4493   93.4761   13.3180 C.ar    1  UNL1        0.0370
     21 C          66.1079   93.7737   11.8880 C.ar    1  UNL1        0.0044
     22 C          65.1502   92.8894   11.1459 C.ar    1  UNL1        0.0149
     23 C          64.5339   91.7075   11.8337 C.ar    1  UNL1        0.0534
     24 C          64.8754   91.4098   13.2637 C.ar    1  UNL1        0.0515
     25 C          67.2775   92.7516   16.1163 C.3     1  UNL1        0.2525
     26 O          66.1745   91.9965   15.4358 O.3     1  UNL1       -0.4714
@<TRIPOS>BOND
     1    25    26    1
     2    26    19    1
     3    19    20   ar
     4    20    21   ar
     5    21    22   ar
     6    22    23   ar
     7    23    15    1
     8    15    16   am
     9    16    17    2
    10    16     1    1
    11     1     2    1
    12     2     3    1
    13     3     4    2
    14     4     9    1
    15     9    10    1
    16    10    11    1
    17    11    12    1
    18    12    13    1
    19    13    14    1
    20     4     5    1
    21     5     6    1
    22     6     7    2
    23     6     8    1
    24    23    24   ar
    25    24    19   ar
    26     8     2    2
    27    14     9    1
    28    15    18    1
@<TRIPOS>MOLECULE
*****
 26 28 0 0 0
SMALL
GASTEIGER

@<TRIPOS>ATOM
      1 C          63.6009   83.6154   10.3232 C.3     1  UNL1        0.2066
      2 C          63.5895   83.3511   11.7996 C.2     1  UNL1        0.3580
      3 N          63.4858   84.4941   12.7654 N.2     1  UNL1       -0.0039
      4 C          63.4743   84.2299   14.2418 C.2     1  UNL1        0.3159
      5 C          63.5666   82.8225   14.7526 C.3     1  UNL1        0.2333
      6 C          63.6703   81.6794   13.7868 C.2     1  UNL1        0.3644
      7 O          63.7625   80.2721   14.2975 O.2     1  UNL1       -0.2422
      8 N          63.6817   81.9438   12.3103 N.am    1  UNL1        0.0289
      9 N          63.3706   85.3729   15.2076 N.pl3   1  UNL1       -0.1888
     10 C          64.0071   86.6912   14.8805 C.3     1  UNL1        0.2343
     11 C          63.9034   87.8342   15.8463 C.3     1  UNL1        0.1929
     12 O          63.1632   87.6590   17.1391 O.3     1  UNL1       -0.3449
     13 C          62.5267   86.3407   17.4662 C.3     1  UNL1        0.1929
     14 C          62.6304   85.1976   16.5005 C.3     1  UNL1        0.2343
     15 N          62.2614   85.8125   10.6813 N.am    1  UNL1       -0.2833
     16 C          63.0553   84.9062    9.7880 C.2     1  UNL1        0.2387
     17 O          63.3038   85.2905    8.3595 O.2     1  UNL1       -0.2741
     18 H          62.0983   85.5603   11.6189 H       1  UNL1        0.1549
     19 C          60.1464   88.3783    8.5149 C.ar    1  UNL1        0.1400
     20 C          60.6246   89.6847    9.0758 C.ar    1  UNL1        0.0370
     21 C          61.6485   89.7003   10.1720 C.ar    1  UNL1        0.0044
     22 C          62.1940   88.4096   10.7071 C.ar    1  UNL1        0.0149
     23 C          61.7158   87.1033   10.1462 C.ar    1  UNL1        0.0534
     24 C          60.6919   87.0877    9.0500 C.ar    1  UNL1        0.0515
     25 C          59.1108   89.4521    6.3878 C.3     1  UNL1        0.2525
     26 O          59.1225   88.3627    7.4187 O.3     1  UNL1       -0.4714
@<TRIPOS>BOND
     1    25    26    1
     2    26    19    1
     3    19    20   ar
     4    20    21   ar
     5    21    22   ar
     6    22    23   ar
     7    23    15    1
     8    15    16   am
     9    16    17    2
    10    16     1    1
    11     1     2    1
    12     2     3    1
    13     3     4    2
    14     4     9    1
    15     9    10    1
    16    10    11    1
    17    11    12    1
    18    12    13    1
    19    13    14    1
    20     4     5    1
    21     5     6    1
    22     6     7    2
    23     6     8    1
    24    23    24   ar
    25    24    19   ar
    26     8     2    2
    27    14     9    1
    28    15    18    1
@<TRIPOS>MOLECULE
*****
 26 28 0 0 0
SMALL
GASTEIGER

@<TRIPOS>ATOM
      1 C          62.7813   90.3179   11.7358 C.3     1  UNL1        0.2066
      2 C          63.8832   91.2044   12.2355 C.2     1  UNL1        0.3580
      3 N          64.5516   92.1691   11.3015 N.2     1  UNL1       -0.0039
      4 C          65.6536   93.0556   11.8012 C.2     1  UNL1        0.3159
      5 C          66.0871   92.9774   13.2352 C.3     1  UNL1        0.2333
      6 C          65.4187   92.0127   14.1692 C.2     1  UNL1        0.3644
      7 O          65.8522   91.9345   15.6030 O.2     1  UNL1       -0.2422
      8 N          64.3167   91.1262   13.6694 N.am    1  UNL1        0.0289
      9 N          66.3220   94.0204   10.8672 N.pl3   1  UNL1       -0.1888
     10 C          66.2006   95.4970   11.1010 C.3     1  UNL1        0.2343
     11 C          66.8691   96.4617   10.1670 C.3     1  UNL1        0.1929
     12 O          67.6589   95.9498    8.9991 O.3     1  UNL1       -0.3449
     13 C          67.7804   94.4731    8.7652 C.3     1  UNL1        0.1929
     14 C          67.1119   93.5084    9.6992 C.3     1  UNL1        0.2343
     15 N          63.7800   88.3236   13.0682 N.am    1  UNL1       -0.2833
     16 C          62.7445   88.8715   12.1315 C.2     1  UNL1        0.2387
     17 O          61.6722   87.9729   11.5904 O.2     1  UNL1       -0.2741
     18 H          64.4837   88.9134   13.4234 H       1  UNL1        0.1549
     19 C          63.1175   84.4132   12.9281 C.ar    1  UNL1        0.1400
     20 C          63.6696   83.9844   14.2552 C.ar    1  UNL1        0.0370
     21 C          64.2584   85.0020   15.1867 C.ar    1  UNL1        0.0044
     22 C          64.2952   86.4484   14.7911 C.ar    1  UNL1        0.0149
     23 C          63.7432   86.8772   13.4640 C.ar    1  UNL1        0.0534
     24 C          63.1543   85.8596   12.5324 C.ar    1  UNL1        0.0515
     25 C          62.8496   81.9412   12.1748 C.3     1  UNL1        0.2525
     26 O          62.5287   83.3956   11.9966 O.3     1  UNL1       -0.4714
@<TRIPOS>BOND
     1    25    26    1
     2    26    19    1
     3    19    20   ar
     4    20    21   ar
     5    21    22   ar
     6    22    23   ar
     7    23    15    1
     8    15    16   am
     9    16    17    2
    10    16     1    1
    11     1     2    1
    12     2     3    1
    13     3     4    2
    14     4     9    1
    15     9    10    1
    16    10    11    1
    17    11    12    1
    18    12    13    1
    19    13    14    1
    20     4     5    1
    21     5     6    1
    22     6     7    2
    23     6     8    1
    24    23    24   ar
    25    24    19   ar
    26     8     2    2
    27    14     9    1
    28    15    18    1
