@<TRIPOS>MOLECULE
*****
 26 28 0 0 0
SMALL
GASTEIGER

@<TRIPOS>ATOM
      1 C          64.4555   87.1861   14.7793 C.3     1  UNL1        0.2066
      2 C          64.0249   88.2442   13.8071 C.2     1  UNL1        0.3580
      3 N          63.1610   87.8801   12.6362 N.2     1  UNL1       -0.0039
      4 C          62.7304   88.9382   11.6641 C.2     1  UNL1        0.3159
      5 C          63.1639   90.3603   11.8628 C.3     1  UNL1        0.2333
      6 C          64.0278   90.7245   13.0337 C.2     1  UNL1        0.3644
      7 O          64.4613   92.1467   13.2324 O.2     1  UNL1       -0.2422
      8 N          64.4584   89.6664   14.0058 N.am    1  UNL1        0.0289
      9 N          61.8664   88.5740   10.4932 N.pl3   1  UNL1       -0.1888
     10 C          60.9651   89.6029    9.8776 C.3     1  UNL1        0.2343
     11 C          60.1011   89.2389    8.7067 C.3     1  UNL1        0.1929
     12 O          60.1384   87.8459    8.1514 O.3     1  UNL1       -0.3449
     13 C          61.0397   86.8170    8.7671 C.3     1  UNL1        0.1929
     14 C          61.9037   87.1811    9.9380 C.3     1  UNL1        0.2343
     15 O          65.4645   84.8047   14.5329 O.2     1  UNL1       -0.2741
     16 C          64.2934   85.7363   14.4304 C.2     1  UNL1        0.2387
     17 N          62.9600   85.2181   13.9791 N.am    1  UNL1       -0.2834
     18 H          62.1913   85.8295   13.9119 H       1  UNL1        0.1549
     19 C          62.7978   83.7683   13.6303 C.ar    1  UNL1        0.0509
     20 C          62.2550   82.8084   14.6471 C.ar    1  UNL1        0.0170
     21 C          62.0928   81.3586   14.2982 C.ar    1  UNL1        0.0314
     22 C          62.4735   80.8686   12.9325 C.ar    1  UNL1        0.1463
     23 F          62.3114   79.4188   12.5836 F       1  UNL1       -0.2037
     24 C          63.0164   81.8285   11.9157 C.ar    1  UNL1        0.0632
     25 BR         63.3971   81.3387   10.5500 Br      1  UNL1       -0.0466
     26 C          63.1785   83.2784   12.2646 C.ar    1  UNL1        0.0236
@<TRIPOS>BOND
     1    15    16    2
     2    16     1    1
     3     1     2    1
     4     2     3    1
     5     3     4    2
     6     4     9    1
     7     9    10    1
     8    10    11    1
     9    11    12    1
    10    12    13    1
    11    13    14    1
    12     4     5    1
    13     5     6    1
    14     6     7    2
    15     6     8    1
    16    16    17   am
    17    17    19    1
    18    19    20   ar
    19    20    21   ar
    20    21    22   ar
    21    22    23    1
    22    22    24   ar
    23    24    25    1
    24    24    26   ar
    25     8     2    2
    26    26    19   ar
    27    14     9    1
    28    17    18    1
@<TRIPOS>MOLECULE
*****
 26 28 0 0 0
SMALL
GASTEIGER

@<TRIPOS>ATOM
      1 C          63.0991   90.5829   13.0365 C.3     1  UNL1        0.2066
      2 C          64.4436   91.2462   13.0861 C.2     1  UNL1        0.3580
      3 N          64.8329   92.2326   12.0253 N.2     1  UNL1       -0.0039
      4 C          66.1773   92.8958   12.0750 C.2     1  UNL1        0.3159
      5 C          67.1325   92.5726   13.1855 C.3     1  UNL1        0.2333
      6 C          66.7432   91.5863   14.2464 C.2     1  UNL1        0.3644
      7 O          67.6983   91.2631   15.3569 O.2     1  UNL1       -0.2422
      8 N          65.3987   90.9230   14.1967 N.am    1  UNL1        0.0289
      9 N          66.5667   93.8822   11.0141 N.pl3   1  UNL1       -0.1888
     10 C          66.2492   95.3376   11.1904 C.3     1  UNL1        0.2343
     11 C          66.6385   96.3240   10.1296 C.3     1  UNL1        0.1929
     12 O          67.3454   95.8551    8.8924 O.3     1  UNL1       -0.3449
     13 C          67.6630   94.3998    8.7162 C.3     1  UNL1        0.1929
     14 C          67.2736   93.4133    9.7771 C.3     1  UNL1        0.2343
     15 O          63.1247   90.2650   10.4581 O.2     1  UNL1       -0.2741
     16 C          62.6893   89.8085   11.8190 C.2     1  UNL1        0.2387
     17 N          61.8441   88.5776   11.9623 N.am    1  UNL1       -0.2834
     18 H          61.5583   88.2779   12.8555 H       1  UNL1        0.1549
     19 C          61.4343   87.8032   10.7448 C.ar    1  UNL1        0.0509
     20 C          60.0622   87.9854   10.1667 C.ar    1  UNL1        0.0170
     21 C          59.6525   87.2111    8.9492 C.ar    1  UNL1        0.0314
     22 C          60.6148   86.2544    8.3097 C.ar    1  UNL1        0.1463
     23 F          60.2050   85.4800    7.0922 F       1  UNL1       -0.2037
     24 C          61.9869   86.0722    8.8878 C.ar    1  UNL1        0.0632
     25 BR         62.9492   85.1156    8.2484 Br      1  UNL1       -0.0466
     26 C          62.3966   86.8466   10.1054 C.ar    1  UNL1        0.0236
@<TRIPOS>BOND
     1    15    16    2
     2    16     1    1
     3     1     2    1
     4     2     3    1
     5     3     4    2
     6     4     9    1
     7     9    10    1
     8    10    11    1
     9    11    12    1
    10    12    13    1
    11    13    14    1
    12     4     5    1
    13     5     6    1
    14     6     7    2
    15     6     8    1
    16    16    17   am
    17    17    19    1
    18    19    20   ar
    19    20    21   ar
    20    21    22   ar
    21    22    23    1
    22    22    24   ar
    23    24    25    1
    24    24    26   ar
    25     8     2    2
    26    26    19   ar
    27    14     9    1
    28    17    18    1
@<TRIPOS>MOLECULE
*****
 26 28 0 0 0
SMALL
GASTEIGER

@<TRIPOS>ATOM
      1 C          63.1015   90.4792   14.1133 C.3     1  UNL1        0.2066
      2 C          64.3423   91.3189   14.0387 C.2     1  UNL1        0.3580
      3 N          64.9118   91.6985   12.7040 N.2     1  UNL1       -0.0039
      4 C          66.1525   92.5381   12.6295 C.2     1  UNL1        0.3159
      5 C          66.8237   92.9981   13.8896 C.3     1  UNL1        0.2333
      6 C          66.2542   92.6185   15.2243 C.2     1  UNL1        0.3644
      7 O          66.9253   93.0784   16.4844 O.2     1  UNL1       -0.2422
      8 N          65.0134   91.7789   15.2988 N.am    1  UNL1        0.0289
      9 N          66.7222   92.9178   11.2947 N.pl3   1  UNL1       -0.1888
     10 C          67.7819   92.0656   10.6617 C.3     1  UNL1        0.2343
     11 C          68.3515   92.4452    9.3270 C.3     1  UNL1        0.1929
     12 O          67.8614   93.6771    8.6253 O.3     1  UNL1       -0.3449
     13 C          66.8017   94.5294    9.2584 C.3     1  UNL1        0.1929
     14 C          66.2321   94.1497   10.5931 C.3     1  UNL1        0.2343
     15 O          63.6718   88.4105   12.6488 O.2     1  UNL1       -0.2741
     16 C          62.7564   89.5493   12.9881 C.2     1  UNL1        0.2387
     17 N          61.4959   89.7582   12.2021 N.am    1  UNL1       -0.2834
     18 H          60.8951   90.5057   12.4248 H       1  UNL1        0.1549
     19 C          61.1509   88.8283   11.0769 C.ar    1  UNL1        0.0509
     20 C          61.4241   87.3592   11.2075 C.ar    1  UNL1        0.0170
     21 C          61.0791   86.4293   10.0823 C.ar    1  UNL1        0.0314
     22 C          60.4607   86.9684    8.8264 C.ar    1  UNL1        0.1463
     23 F          60.1156   86.0385    7.7012 F       1  UNL1       -0.2037
     24 C          60.1874   88.4375    8.6959 C.ar    1  UNL1        0.0632
     25 BR         59.5691   88.9767    7.4402 Br      1  UNL1       -0.0466
     26 C          60.5325   89.3675    9.8212 C.ar    1  UNL1        0.0236
@<TRIPOS>BOND
     1    15    16    2
     2    16     1    1
     3     1     2    1
     4     2     3    1
     5     3     4    2
     6     4     9    1
     7     9    10    1
     8    10    11    1
     9    11    12    1
    10    12    13    1
    11    13    14    1
    12     4     5    1
    13     5     6    1
    14     6     7    2
    15     6     8    1
    16    16    17   am
    17    17    19    1
    18    19    20   ar
    19    20    21   ar
    20    21    22   ar
    21    22    23    1
    22    22    24   ar
    23    24    25    1
    24    24    26   ar
    25     8     2    2
    26    26    19   ar
    27    14     9    1
    28    17    18    1
@<TRIPOS>MOLECULE
*****
 26 28 0 0 0
SMALL
GASTEIGER

@<TRIPOS>ATOM
      1 C          61.3798   88.6300   10.7584 C.3     1  UNL1        0.2066
      2 C          61.9048   87.2414   10.5431 C.2     1  UNL1        0.3580
      3 N          62.1498   86.3416   11.7179 N.2     1  UNL1       -0.0039
      4 C          62.6748   84.9531   11.5025 C.2     1  UNL1        0.3159
      5 C          62.9548   84.4644   10.1123 C.3     1  UNL1        0.2333
      6 C          62.7099   85.3642    8.9374 C.2     1  UNL1        0.3644
      7 O          62.9899   84.8755    7.5472 O.2     1  UNL1       -0.2422
      8 N          62.1849   86.7527    9.1528 N.am    1  UNL1        0.0289
      9 N          62.9197   84.0532   12.6774 N.pl3   1  UNL1       -0.1888
     10 C          62.7624   82.5687   12.5308 C.3     1  UNL1        0.2343
     11 C          63.0074   81.6689   13.7055 C.3     1  UNL1        0.1929
     12 O          63.4097   82.2535   15.0271 O.3     1  UNL1       -0.3449
     13 C          63.5670   83.7380   15.1738 C.3     1  UNL1        0.1929
     14 C          63.3220   84.6379   13.9989 C.3     1  UNL1        0.2343
     15 O          61.8497   91.0427   11.5996 O.2     1  UNL1       -0.2741
     16 C          62.0926   89.5653   11.6895 C.2     1  UNL1        0.2387
     17 N          63.0483   89.0231   12.7108 N.am    1  UNL1       -0.2834
     18 H          63.2077   88.0534   12.7698 H       1  UNL1        0.1549
     19 C          63.7611   89.9584   13.6419 C.ar    1  UNL1        0.0509
     20 C          63.3437   90.0477   15.0799 C.ar    1  UNL1        0.0170
     21 C          64.0565   90.9830   16.0111 C.ar    1  UNL1        0.0314
     22 C          65.1867   91.8291   15.5042 C.ar    1  UNL1        0.1463
     23 F          65.8995   92.7644   16.4354 F       1  UNL1       -0.2037
     24 C          65.6041   91.7399   14.0662 C.ar    1  UNL1        0.0632
     25 BR         66.7342   92.5859   13.5594 Br      1  UNL1       -0.0466
     26 C          64.8912   90.8045   13.1351 C.ar    1  UNL1        0.0236
@<TRIPOS>BOND
     1    15    16    2
     2    16     1    1
     3     1     2    1
     4     2     3    1
     5     3     4    2
     6     4     9    1
     7     9    10    1
     8    10    11    1
     9    11    12    1
    10    12    13    1
    11    13    14    1
    12     4     5    1
    13     5     6    1
    14     6     7    2
    15     6     8    1
    16    16    17   am
    17    17    19    1
    18    19    20   ar
    19    20    21   ar
    20    21    22   ar
    21    22    23    1
    22    22    24   ar
    23    24    25    1
    24    24    26   ar
    25     8     2    2
    26    26    19   ar
    27    14     9    1
    28    17    18    1
@<TRIPOS>MOLECULE
*****
 26 28 0 0 0
SMALL
GASTEIGER

@<TRIPOS>ATOM
      1 C          63.2534   90.3957   13.5690 C.3     1  UNL1        0.2066
      2 C          64.4087   91.3466   13.6742 C.2     1  UNL1        0.3580
      3 N          64.9629   91.9930   12.4393 N.2     1  UNL1       -0.0039
      4 C          66.1182   92.9439   12.5446 C.2     1  UNL1        0.3159
      5 C          66.7193   93.2483   13.8847 C.3     1  UNL1        0.2333
      6 C          66.1651   92.6019   15.1196 C.2     1  UNL1        0.3644
      7 O          66.7662   92.9064   16.4597 O.2     1  UNL1       -0.2422
      8 N          65.0098   91.6511   15.0143 N.am    1  UNL1        0.0289
      9 N          66.6725   93.5903   11.3096 N.pl3   1  UNL1       -0.1888
     10 C          66.4510   95.0536   11.0652 C.3     1  UNL1        0.2343
     11 C          67.0052   95.7000    9.8304 C.3     1  UNL1        0.1929
     12 O          67.7810   94.8832    8.8399 O.3     1  UNL1       -0.3449
     13 C          68.0025   93.4199    9.0843 C.3     1  UNL1        0.1929
     14 C          67.4482   92.7735   10.3192 C.3     1  UNL1        0.2343
     15 O          63.5348   88.5965   15.4219 O.2     1  UNL1       -0.2741
     16 C          63.4241   88.9607   13.9711 C.2     1  UNL1        0.2387
     17 N          63.4840   87.8899   12.9223 N.am    1  UNL1       -0.2834
     18 H          63.4113   88.1290   11.9700 H       1  UNL1        0.1549
     19 C          63.6547   86.4550   13.3244 C.ar    1  UNL1        0.0509
     20 C          64.4057   86.1112   14.5765 C.ar    1  UNL1        0.0170
     21 C          64.5764   84.6762   14.9786 C.ar    1  UNL1        0.0314
     22 C          63.9960   83.5850   14.1286 C.ar    1  UNL1        0.1463
     23 F          64.1667   82.1500   14.5307 F       1  UNL1       -0.2037
     24 C          63.2450   83.9288   12.8764 C.ar    1  UNL1        0.0632
     25 BR         62.6647   82.8377   12.0264 Br      1  UNL1       -0.0466
     26 C          63.0744   85.3638   12.4744 C.ar    1  UNL1        0.0236
@<TRIPOS>BOND
     1    15    16    2
     2    16     1    1
     3     1     2    1
     4     2     3    1
     5     3     4    2
     6     4     9    1
     7     9    10    1
     8    10    11    1
     9    11    12    1
    10    12    13    1
    11    13    14    1
    12     4     5    1
    13     5     6    1
    14     6     7    2
    15     6     8    1
    16    16    17   am
    17    17    19    1
    18    19    20   ar
    19    20    21   ar
    20    21    22   ar
    21    22    23    1
    22    22    24   ar
    23    24    25    1
    24    24    26   ar
    25     8     2    2
    26    26    19   ar
    27    14     9    1
    28    17    18    1
@<TRIPOS>MOLECULE
*****
 26 28 0 0 0
SMALL
GASTEIGER

@<TRIPOS>ATOM
      1 C          61.9652   89.6226   11.0515 C.3     1  UNL1        0.2066
      2 C          63.0315   90.3620   11.8041 C.2     1  UNL1        0.3580
      3 N          63.9785   91.2647   11.0704 N.2     1  UNL1       -0.0039
      4 C          65.0446   92.0041   11.8231 C.2     1  UNL1        0.3159
      5 C          65.1639   91.8408   13.3094 C.3     1  UNL1        0.2333
      6 C          64.2169   90.9381   14.0430 C.2     1  UNL1        0.3644
      7 O          64.3361   90.7748   15.5293 O.2     1  UNL1       -0.2422
      8 N          63.1507   90.1987   13.2904 N.am    1  UNL1        0.0289
      9 N          65.9917   92.9069   11.0894 N.pl3   1  UNL1       -0.1888
     10 C          67.0912   92.3208   10.2541 C.3     1  UNL1        0.2343
     11 C          68.0382   93.2235    9.5205 C.3     1  UNL1        0.1929
     12 O          67.8858   94.7123    9.6221 O.3     1  UNL1       -0.3449
     13 C          66.7863   95.2984   10.4573 C.3     1  UNL1        0.1929
     14 C          65.8392   94.3956   11.1910 C.3     1  UNL1        0.2343
     15 O          60.8760   87.3826   10.3124 O.2     1  UNL1       -0.2741
     16 C          61.9125   88.1244   11.1032 C.2     1  UNL1        0.2387
     17 N          62.8963   87.3680   11.9459 N.am    1  UNL1       -0.2834
     18 H          63.5766   87.8548   12.4650 H       1  UNL1        0.1549
     19 C          62.8436   85.8698   11.9977 C.ar    1  UNL1        0.0509
     20 C          62.8779   85.0738   10.7268 C.ar    1  UNL1        0.0170
     21 C          62.8252   83.5756   10.7786 C.ar    1  UNL1        0.0314
     22 C          62.7382   82.8735   12.1013 C.ar    1  UNL1        0.1463
     23 F          62.6855   81.3753   12.1531 F       1  UNL1       -0.2037
     24 C          62.7039   83.6695   13.3722 C.ar    1  UNL1        0.0632
     25 BR         62.6170   82.9674   14.6948 Br      1  UNL1       -0.0466
     26 C          62.7567   85.1677   13.3203 C.ar    1  UNL1        0.0236
@<TRIPOS>BOND
     1    15    16    2
     2    16     1    1
     3     1     2    1
     4     2     3    1
     5     3     4    2
     6     4     9    1
     7     9    10    1
     8    10    11    1
     9    11    12    1
    10    12    13    1
    11    13    14    1
    12     4     5    1
    13     5     6    1
    14     6     7    2
    15     6     8    1
    16    16    17   am
    17    17    19    1
    18    19    20   ar
    19    20    21   ar
    20    21    22   ar
    21    22    23    1
    22    22    24   ar
    23    24    25    1
    24    24    26   ar
    25     8     2    2
    26    26    19   ar
    27    14     9    1
    28    17    18    1
@<TRIPOS>MOLECULE
*****
 26 28 0 0 0
SMALL
GASTEIGER

@<TRIPOS>ATOM
      1 C          62.1386   88.6144   11.0515 C.3     1  UNL1        0.2066
      2 C          62.8966   89.5248   11.9718 C.2     1  UNL1        0.3580
      3 N          63.7775   90.5990   11.4062 N.2     1  UNL1       -0.0039
      4 C          64.5354   91.5092   12.3265 C.2     1  UNL1        0.3159
      5 C          64.4124   91.3452   13.8125 C.3     1  UNL1        0.2333
      6 C          63.5314   90.2710   14.3781 C.2     1  UNL1        0.3644
      7 O          63.4084   90.1070   15.8640 O.2     1  UNL1       -0.2422
      8 N          62.7735   89.3608   13.4577 N.am    1  UNL1        0.0289
      9 N          65.4164   92.5835   11.7609 N.pl3   1  UNL1       -0.1888
     10 C          65.9780   92.4417   10.3773 C.3     1  UNL1        0.2343
     11 C          66.8589   93.5159    9.8117 C.3     1  UNL1        0.1929
     12 O          67.1784   94.7320   10.6297 O.3     1  UNL1       -0.3449
     13 C          66.6168   94.8738   12.0134 C.3     1  UNL1        0.1929
     14 C          65.7358   93.7995   12.5790 C.3     1  UNL1        0.2343
     15 O          60.9833   86.3125   10.7107 O.2     1  UNL1       -0.2741
     16 C          62.0523   87.1473   11.3513 C.2     1  UNL1        0.2387
     17 N          63.0351   86.5149   12.2918 N.am    1  UNL1       -0.2834
     18 H          63.7367   87.0628   12.7122 H       1  UNL1        0.1549
     19 C          62.9488   85.0477   12.5916 C.ar    1  UNL1        0.0509
     20 C          62.6029   84.5841   13.9756 C.ar    1  UNL1        0.0170
     21 C          62.5166   83.1169   14.2754 C.ar    1  UNL1        0.0314
     22 C          62.7762   82.1133   13.1912 C.ar    1  UNL1        0.1463
     23 F          62.6899   80.6461   13.4911 F       1  UNL1       -0.2037
     24 C          63.1220   82.5769   11.8073 C.ar    1  UNL1        0.0632
     25 BR         63.3816   81.5734   10.7231 Br      1  UNL1       -0.0466
     26 C          63.2083   84.0442   11.5074 C.ar    1  UNL1        0.0236
@<TRIPOS>BOND
     1    15    16    2
     2    16     1    1
     3     1     2    1
     4     2     3    1
     5     3     4    2
     6     4     9    1
     7     9    10    1
     8    10    11    1
     9    11    12    1
    10    12    13    1
    11    13    14    1
    12     4     5    1
    13     5     6    1
    14     6     7    2
    15     6     8    1
    16    16    17   am
    17    17    19    1
    18    19    20   ar
    19    20    21   ar
    20    21    22   ar
    21    22    23    1
    22    22    24   ar
    23    24    25    1
    24    24    26   ar
    25     8     2    2
    26    26    19   ar
    27    14     9    1
    28    17    18    1
@<TRIPOS>MOLECULE
*****
 26 28 0 0 0
SMALL
GASTEIGER

@<TRIPOS>ATOM
      1 C          61.8074   87.0897    9.4545 C.3     1  UNL1        0.2066
      2 C          61.6631   88.3598   10.2394 C.2     1  UNL1        0.3580
      3 N          62.8529   88.9500   10.9365 N.2     1  UNL1       -0.0039
      4 C          62.7086   90.2201   11.7213 C.2     1  UNL1        0.3159
      5 C          61.3744   90.9000   11.8090 C.3     1  UNL1        0.2333
      6 C          60.1846   90.3099   11.1119 C.2     1  UNL1        0.3644
      7 O          58.8504   90.9898   11.1995 O.2     1  UNL1       -0.2422
      8 N          60.3289   89.0398   10.3271 N.am    1  UNL1        0.0289
      9 N          63.8984   90.8103   12.4185 N.pl3   1  UNL1       -0.1888
     10 C          64.3097   90.2955   13.7660 C.3     1  UNL1        0.2343
     11 C          65.4995   90.8856   14.4632 C.3     1  UNL1        0.1929
     12 O          66.2780   91.9907   13.8129 O.3     1  UNL1       -0.3449
     13 C          65.8667   92.5055   12.4654 C.3     1  UNL1        0.1929
     14 C          64.6768   91.9153   11.7682 C.3     1  UNL1        0.2343
     15 O          63.1396   84.8646    9.2992 O.2     1  UNL1       -0.2741
     16 C          62.3672   85.8623   10.1103 C.2     1  UNL1        0.2387
     17 N          62.1546   85.6326   11.5774 N.am    1  UNL1       -0.2834
     18 H          61.6477   86.2874   12.1098 H       1  UNL1        0.1549
     19 C          62.7144   84.4052   12.2332 C.ar    1  UNL1        0.0509
     20 C          63.5144   84.5283   13.4961 C.ar    1  UNL1        0.0170
     21 C          64.0742   83.3009   14.1519 C.ar    1  UNL1        0.0314
     22 C          63.8340   81.9504   13.5448 C.ar    1  UNL1        0.1463
     23 F          64.3938   80.7230   14.2006 F       1  UNL1       -0.2037
     24 C          63.0341   81.8273   12.2819 C.ar    1  UNL1        0.0632
     25 BR         62.7939   80.4769   11.6748 Br      1  UNL1       -0.0466
     26 C          62.4743   83.0548   11.6261 C.ar    1  UNL1        0.0236
@<TRIPOS>BOND
     1    15    16    2
     2    16     1    1
     3     1     2    1
     4     2     3    1
     5     3     4    2
     6     4     9    1
     7     9    10    1
     8    10    11    1
     9    11    12    1
    10    12    13    1
    11    13    14    1
    12     4     5    1
    13     5     6    1
    14     6     7    2
    15     6     8    1
    16    16    17   am
    17    17    19    1
    18    19    20   ar
    19    20    21   ar
    20    21    22   ar
    21    22    23    1
    22    22    24   ar
    23    24    25    1
    24    24    26   ar
    25     8     2    2
    26    26    19   ar
    27    14     9    1
    28    17    18    1
@<TRIPOS>MOLECULE
*****
 26 28 0 0 0
SMALL
GASTEIGER

@<TRIPOS>ATOM
      1 C          61.6306   87.1914    9.1995 C.3     1  UNL1        0.2066
      2 C          61.5054   88.4570    9.9951 C.2     1  UNL1        0.3580
      3 N          62.7355   89.2182   10.3918 N.2     1  UNL1       -0.0039
      4 C          62.6103   90.4837   11.1873 C.2     1  UNL1        0.3159
      5 C          61.2550   90.9878   11.5862 C.3     1  UNL1        0.2333
      6 C          60.0250   90.2265   11.1895 C.2     1  UNL1        0.3644
      7 O          58.6697   90.7307   11.5883 O.2     1  UNL1       -0.2422
      8 N          60.1502   88.9611   10.3939 N.am    1  UNL1        0.0289
      9 N          63.8403   91.2450   11.5840 N.pl3   1  UNL1       -0.1888
     10 C          64.5817   92.0567   10.5635 C.3     1  UNL1        0.2343
     11 C          65.8117   92.8181   10.9601 C.3     1  UNL1        0.1929
     12 O          66.3004   92.7677   12.3774 O.3     1  UNL1       -0.3449
     13 C          65.5591   91.9560   13.3980 C.3     1  UNL1        0.1929
     14 C          64.3290   91.1946   13.0013 C.3     1  UNL1        0.2343
     15 O          63.1547   85.0938    9.0359 O.2     1  UNL1       -0.2741
     16 C          62.2265   85.9666    9.8275 C.2     1  UNL1        0.2387
     17 N          61.8943   85.6144   11.2473 N.am    1  UNL1       -0.2834
     18 H          61.2851   86.1873   11.7669 H       1  UNL1        0.1549
     19 C          62.4903   84.3895   11.8753 C.ar    1  UNL1        0.0509
     20 C          62.5061   83.0925   11.1220 C.ar    1  UNL1        0.0170
     21 C          63.1020   81.8676   11.7501 C.ar    1  UNL1        0.0314
     22 C          63.6822   81.9397   13.1315 C.ar    1  UNL1        0.1463
     23 F          64.2781   80.7149   13.7595 F       1  UNL1       -0.2037
     24 C          63.6664   83.2368   13.8848 C.ar    1  UNL1        0.0632
     25 BR         64.2465   83.3089   15.2662 Br      1  UNL1       -0.0466
     26 C          63.0704   84.4617   13.2567 C.ar    1  UNL1        0.0236
@<TRIPOS>BOND
     1    15    16    2
     2    16     1    1
     3     1     2    1
     4     2     3    1
     5     3     4    2
     6     4     9    1
     7     9    10    1
     8    10    11    1
     9    11    12    1
    10    12    13    1
    11    13    14    1
    12     4     5    1
    13     5     6    1
    14     6     7    2
    15     6     8    1
    16    16    17   am
    17    17    19    1
    18    19    20   ar
    19    20    21   ar
    20    21    22   ar
    21    22    23    1
    22    22    24   ar
    23    24    25    1
    24    24    26   ar
    25     8     2    2
    26    26    19   ar
    27    14     9    1
    28    17    18    1
