@<TRIPOS>MOLECULE
*****
 42 47 0 0 0
SMALL
GASTEIGER

@<TRIPOS>ATOM
      1 C          65.8260   91.3718   14.1324 C.ar    1  UNL1        0.0870
      2 N          65.2635   90.2660   14.9754 N.ar    1  UNL1       -0.2279
      3 C          64.0959   89.4651   14.4802 C.ar    1  UNL1        0.1596
      4 N          63.5334   88.3592   15.3232 N.pl3   1  UNL1       -0.3402
      5 C          63.4907   89.7700   13.1419 C.ar    1  UNL1        0.1696
      6 C          64.0532   90.8758   12.2989 C.ar    1  UNL1        0.0428
      7 C          65.2209   91.6767   12.7942 C.ar    1  UNL1        0.0380
      8 H          63.9305   88.1591   16.2016 H       1  UNL1        0.1438
      9 H          62.7670   87.8336   14.9982 H       1  UNL1        0.1438
     10 C          65.7834   92.7826   11.9511 C.ar    1  UNL1        0.0777
     11 C          65.4428   94.2100   12.2618 C.ar    1  UNL1        0.1176
     12 N          66.0053   95.3158   11.4188 N.ar    1  UNL1       -0.2209
     13 C          66.9084   94.9943   10.2651 C.ar    1  UNL1        0.2006
     14 N          67.6078   95.8660    9.2647 N.ar    1  UNL1       -0.1272
     15 N          68.3807   94.9775    8.3357 N.ar    1  UNL1       -0.1493
     16 C          68.1589   93.5565    8.7620 C.ar    1  UNL1        0.0995
     17 C          68.7442   92.3389    8.1102 C.3     1  UNL1        0.0557
     18 C          67.2489   93.5669    9.9544 C.ar    1  UNL1        0.1101
     19 N          66.6864   92.4611   10.7974 N.ar    1  UNL1       -0.3484
     20 H          66.9099   91.5242   10.5935 H       1  UNL1        0.1661
     21 C          68.8193   91.4035   12.8331 C.3     1  UNL1        0.0725
     22 C          68.3695   92.1873   14.0303 C.ar    1  UNL1        0.1248
     23 O          69.2166   93.1233   14.8405 O.2     1  UNL1       -0.4546
     24 C          68.3642   93.6871   15.9385 C.ar    1  UNL1        0.1792
     25 C          66.9903   93.0997   15.8069 C.ar    1  UNL1        0.0448
     26 C          66.9936   92.1727   14.6276 C.ar    1  UNL1        0.0512
     27 O          62.3231   88.9691   12.6467 O.3     1  UNL1       -0.4712
     28 C          61.3648   89.5706   11.6620 C.3     1  UNL1        0.2211
     29 C          60.8607   88.7522   10.5103 C.3     1  UNL1        0.0995
     30 N          60.5577   89.4116    9.1976 N.3     1  UNL1       -0.3190
     31 H          60.2281   88.7111    8.5334 H       1  UNL1        0.1189
     32 H          61.4032   89.8523    8.8353 H       1  UNL1        0.1189
     33 C          60.6597   87.2744   10.6715 C.3     1  UNL1        0.0472
     34 C          61.6062   86.3129   10.0161 C.2     1  UNL1       -0.0005
     35 C          61.9023   86.2297    8.5479 C.2     1  UNL1        0.0942
     36 N          62.9019   85.1311    8.3382 N.2     1  UNL1       -0.2482
     37 C          63.2236   84.5354    9.6767 C.2     1  UNL1        0.0631
     38 C          64.1423   83.4223   10.0853 C.3     1  UNL1        0.0717
     39 C          64.2602   83.0395   11.5308 C.2     1  UNL1       -0.0198
     40 C          63.4594   83.7699   12.5678 C.2     1  UNL1       -0.0042
     41 C          62.5407   84.8830   12.1592 C.2     1  UNL1        0.0006
     42 C          62.4229   85.2658   10.7137 C.2     1  UNL1        0.0114
@<TRIPOS>BOND
     1    21    22    1
     2    22    23   ar
     3    23    24   ar
     4    24    25   ar
     5    25    26   ar
     6    26     1    1
     7     1     2   ar
     8     2     3   ar
     9     3     4    1
    10     3     5   ar
    11     5    27    1
    12    27    28    1
    13    28    29    1
    14    29    30    1
    15    29    33    1
    16    33    34    1
    17    34    35    2
    18    35    36    1
    19    36    37    2
    20    37    38    1
    21    38    39    1
    22    39    40    2
    23    40    41    1
    24    41    42    2
    25     5     6   ar
    26     6     7   ar
    27     7    10    1
    28    10    11   ar
    29    11    12   ar
    30    12    13   ar
    31    13    14   ar
    32    14    15   ar
    33    15    16   ar
    34    16    17    1
    35    16    18   ar
    36    18    19   ar
    37    26    22   ar
    38     7     1   ar
    39    19    10   ar
    40    42    34    1
    41    18    13    1
    42    42    37    1
    43     4     8    1
    44     4     9    1
    45    30    31    1
    46    30    32    1
    47    19    20    1
@<TRIPOS>MOLECULE
*****
 42 47 0 0 0
SMALL
GASTEIGER

@<TRIPOS>ATOM
      1 C          65.8407   91.3366   14.0596 C.ar    1  UNL1        0.0870
      2 N          65.2767   90.2366   14.9091 N.ar    1  UNL1       -0.2279
      3 C          64.0644   89.4815   14.4508 C.ar    1  UNL1        0.1596
      4 N          63.5004   88.3814   15.3003 N.pl3   1  UNL1       -0.3402
      5 C          63.4160   89.8265   13.1428 C.ar    1  UNL1        0.1696
      6 C          63.9800   90.9266   12.2932 C.ar    1  UNL1        0.0428
      7 C          65.1924   91.6816   12.7517 C.ar    1  UNL1        0.0380
      8 H          63.9259   88.1550   16.1587 H       1  UNL1        0.1438
      9 H          62.7047   87.8859   14.9994 H       1  UNL1        0.1438
     10 C          65.7564   92.7817   11.9022 C.ar    1  UNL1        0.0777
     11 C          65.4031   94.2102   12.1931 C.ar    1  UNL1        0.1176
     12 N          65.9671   95.3103   11.3435 N.ar    1  UNL1       -0.2209
     13 C          66.8844   94.9819   10.2031 C.ar    1  UNL1        0.2006
     14 N          67.5886   95.8470    9.2003 N.ar    1  UNL1       -0.1272
     15 N          68.3773   94.9533    8.2896 N.ar    1  UNL1       -0.1493
     16 C          68.1604   93.5358    8.7296 C.ar    1  UNL1        0.0995
     17 C          68.7607   92.3149    8.0979 C.3     1  UNL1        0.0557
     18 C          67.2378   93.5535    9.9122 C.ar    1  UNL1        0.1101
     19 N          66.6738   92.4534   10.7617 N.ar    1  UNL1       -0.3484
     20 H          66.9057   91.5159   10.5708 H       1  UNL1        0.1661
     21 C          68.7988   91.2316   12.6856 C.3     1  UNL1        0.0725
     22 C          68.4128   92.0434   13.8864 C.ar    1  UNL1        0.1248
     23 O          69.3186   92.9495   14.6664 O.2     1  UNL1       -0.4546
     24 C          68.5188   93.5577   15.7801 C.ar    1  UNL1        0.1792
     25 C          67.1186   93.0276   15.6883 C.ar    1  UNL1        0.0448
     26 C          67.0531   92.0917   14.5180 C.ar    1  UNL1        0.0512
     27 O          62.2037   89.0715   12.6844 O.3     1  UNL1       -0.4712
     28 C          62.2782   88.2031   11.4636 C.3     1  UNL1        0.2211
     29 C          62.2839   86.7098   11.6048 C.3     1  UNL1        0.0995
     30 N          61.3151   85.8783   10.8172 N.3     1  UNL1       -0.3190
     31 H          61.4583   84.8921   11.0347 H       1  UNL1        0.1189
     32 H          61.4670   86.0322    9.8204 H       1  UNL1        0.1189
     33 C          63.2583   86.0479   12.5335 C.3     1  UNL1        0.0472
     34 C          62.9641   84.6825   13.0804 C.2     1  UNL1       -0.0005
     35 C          62.5015   84.3714   14.4730 C.2     1  UNL1        0.0942
     36 N          62.3323   82.8851   14.5840 N.2     1  UNL1       -0.2482
     37 C          62.6903   82.2776   13.2601 C.2     1  UNL1        0.0631
     38 C          62.7112   80.8565   12.7806 C.3     1  UNL1        0.0717
     39 C          63.1225   80.5462   11.3719 C.2     1  UNL1       -0.0198
     40 C          63.5129   81.6571   10.4426 C.2     1  UNL1       -0.0042
     41 C          63.4921   83.0782   10.9221 C.2     1  UNL1        0.0006
     42 C          63.0807   83.3885   12.3308 C.2     1  UNL1        0.0114
@<TRIPOS>BOND
     1    21    22    1
     2    22    23   ar
     3    23    24   ar
     4    24    25   ar
     5    25    26   ar
     6    26     1    1
     7     1     2   ar
     8     2     3   ar
     9     3     4    1
    10     3     5   ar
    11     5    27    1
    12    27    28    1
    13    28    29    1
    14    29    30    1
    15    29    33    1
    16    33    34    1
    17    34    35    2
    18    35    36    1
    19    36    37    2
    20    37    38    1
    21    38    39    1
    22    39    40    2
    23    40    41    1
    24    41    42    2
    25     5     6   ar
    26     6     7   ar
    27     7    10    1
    28    10    11   ar
    29    11    12   ar
    30    12    13   ar
    31    13    14   ar
    32    14    15   ar
    33    15    16   ar
    34    16    17    1
    35    16    18   ar
    36    18    19   ar
    37    26    22   ar
    38     7     1   ar
    39    19    10   ar
    40    42    34    1
    41    18    13    1
    42    42    37    1
    43     4     8    1
    44     4     9    1
    45    30    31    1
    46    30    32    1
    47    19    20    1
@<TRIPOS>MOLECULE
*****
 42 47 0 0 0
SMALL
GASTEIGER

@<TRIPOS>ATOM
      1 C          61.7478   86.9833    9.4082 C.ar    1  UNL1        0.0870
      2 N          61.3678   88.4297    9.2926 N.ar    1  UNL1       -0.2279
      3 C          61.5663   89.3529   10.4580 C.ar    1  UNL1        0.1596
      4 N          61.1864   90.7993   10.3423 N.pl3   1  UNL1       -0.3402
      5 C          62.1450   88.8296   11.7393 C.ar    1  UNL1        0.1696
      6 C          62.5250   87.3831   11.8550 C.ar    1  UNL1        0.0428
      7 C          62.3263   86.4600   10.6894 C.ar    1  UNL1        0.0380
      8 H          60.8066   91.1428    9.5015 H       1  UNL1        0.1438
      9 H          61.3167   91.4052   11.1073 H       1  UNL1        0.1438
     10 C          62.7063   85.0136   10.8051 C.ar    1  UNL1        0.0777
     11 C          63.6233   84.3956    9.7915 C.ar    1  UNL1        0.1176
     12 N          64.0033   82.9492    9.9072 N.ar    1  UNL1       -0.2209
     13 C          63.4664   82.1206   11.0364 C.ar    1  UNL1        0.2006
     14 N          63.6635   80.6806   11.4068 N.ar    1  UNL1       -0.1272
     15 N          62.8685   80.4084   12.6493 N.ar    1  UNL1       -0.1493
     16 C          62.1799   81.6804   13.0468 C.ar    1  UNL1        0.0995
     17 C          61.2798   81.8621   14.2329 C.3     1  UNL1        0.0557
     18 C          62.5494   82.7386   12.0500 C.ar    1  UNL1        0.1101
     19 N          62.1694   84.1850   11.9343 N.ar    1  UNL1       -0.3484
     20 H          61.5676   84.5906   12.5996 H       1  UNL1        0.1661
     21 C          58.9327   86.4400    7.8496 C.3     1  UNL1        0.0725
     22 C          60.2552   85.8104    7.5263 C.ar    1  UNL1        0.1248
     23 O          60.5160   84.8206    6.4299 O.2     1  UNL1       -0.4546
     24 C          61.9712   84.4585    6.4687 C.ar    1  UNL1        0.1792
     25 C          62.6097   85.2246    7.5891 C.ar    1  UNL1        0.0448
     26 C          61.5492   86.0601    8.2428 C.ar    1  UNL1        0.0512
     27 O          62.3435   89.7527   12.9048 O.3     1  UNL1       -0.4712
     28 C          63.4571   90.7574   12.8844 C.3     1  UNL1        0.2211
     29 C          64.4664   90.7808   13.9938 C.3     1  UNL1        0.0995
     30 N          64.9161   92.0902   14.5711 N.3     1  UNL1       -0.3190
     31 H          65.5988   91.9196   15.3096 H       1  UNL1        0.1189
     32 H          64.1126   92.5848   14.9586 H       1  UNL1        0.1189
     33 C          65.0262   89.4948   14.5258 C.3     1  UNL1        0.0472
     34 C          64.1735   88.6009   15.3767 C.2     1  UNL1       -0.0005
     35 C          63.2286   89.0472   16.4528 C.2     1  UNL1        0.0942
     36 N          62.5873   87.8259   17.0421 N.2     1  UNL1       -0.2482
     37 C          63.1359   86.6249   16.3302 C.2     1  UNL1        0.0631
     38 C          62.8694   85.1571   16.4863 C.3     1  UNL1        0.0717
     39 C          63.5833   84.1683   15.6131 C.2     1  UNL1       -0.0198
     40 C          64.5637   84.6473   14.5838 C.2     1  UNL1       -0.0042
     41 C          64.8302   86.1151   14.4278 C.2     1  UNL1        0.0006
     42 C          64.1163   87.1039   15.3010 C.2     1  UNL1        0.0114
@<TRIPOS>BOND
     1    21    22    1
     2    22    23   ar
     3    23    24   ar
     4    24    25   ar
     5    25    26   ar
     6    26     1    1
     7     1     2   ar
     8     2     3   ar
     9     3     4    1
    10     3     5   ar
    11     5    27    1
    12    27    28    1
    13    28    29    1
    14    29    30    1
    15    29    33    1
    16    33    34    1
    17    34    35    2
    18    35    36    1
    19    36    37    2
    20    37    38    1
    21    38    39    1
    22    39    40    2
    23    40    41    1
    24    41    42    2
    25     5     6   ar
    26     6     7   ar
    27     7    10    1
    28    10    11   ar
    29    11    12   ar
    30    12    13   ar
    31    13    14   ar
    32    14    15   ar
    33    15    16   ar
    34    16    17    1
    35    16    18   ar
    36    18    19   ar
    37    26    22   ar
    38     7     1   ar
    39    19    10   ar
    40    42    34    1
    41    18    13    1
    42    42    37    1
    43     4     8    1
    44     4     9    1
    45    30    31    1
    46    30    32    1
    47    19    20    1
@<TRIPOS>MOLECULE
*****
 42 47 0 0 0
SMALL
GASTEIGER

@<TRIPOS>ATOM
      1 C          61.7985   87.1172    9.5103 C.ar    1  UNL1        0.0870
      2 N          61.4632   88.5759    9.4116 N.ar    1  UNL1       -0.2279
      3 C          61.7454   89.4902   10.5669 C.ar    1  UNL1        0.1596
      4 N          61.4101   90.9489   10.4682 N.pl3   1  UNL1       -0.3402
      5 C          62.3628   88.9456   11.8209 C.ar    1  UNL1        0.1696
      6 C          62.6980   87.4869   11.9196 C.ar    1  UNL1        0.0428
      7 C          62.4158   86.5727   10.7643 C.ar    1  UNL1        0.0380
      8 H          61.0049   91.3063    9.6452 H       1  UNL1        0.1438
      9 H          61.5953   91.5489   11.2264 H       1  UNL1        0.1438
     10 C          62.7510   85.1140   10.8630 C.ar    1  UNL1        0.0777
     11 C          63.5779   84.4606    9.7956 C.ar    1  UNL1        0.1176
     12 N          63.9131   83.0019    9.8943 N.ar    1  UNL1       -0.2209
     13 C          63.4215   82.1965   11.0603 C.ar    1  UNL1        0.2006
     14 N          63.5912   80.7515   11.4250 N.ar    1  UNL1       -0.1272
     15 N          62.8692   80.5117   12.7177 N.ar    1  UNL1       -0.1493
     16 C          62.2533   81.8087   13.1520 C.ar    1  UNL1        0.0995
     17 C          61.4390   82.0262   14.3928 C.3     1  UNL1        0.0557
     18 C          62.5947   82.8500   12.1277 C.ar    1  UNL1        0.1101
     19 N          62.2595   84.3087   12.0290 N.ar    1  UNL1       -0.3484
     20 H          61.7168   84.7375   12.7296 H       1  UNL1        0.1661
     21 C          58.8913   86.6415    8.1063 C.3     1  UNL1        0.0725
     22 C          60.1800   85.9844    7.7097 C.ar    1  UNL1        0.1248
     23 O          60.3587   84.9931    6.5982 O.2     1  UNL1       -0.4546
     24 C          61.8055   84.5992    6.5566 C.ar    1  UNL1        0.1792
     25 C          62.5209   85.3469    7.6424 C.ar    1  UNL1        0.0448
     26 C          61.5163   86.2030    8.3551 C.ar    1  UNL1        0.0512
     27 O          62.6449   89.8599   12.9761 O.3     1  UNL1       -0.4712
     28 C          63.4709   89.3761   14.1310 C.3     1  UNL1        0.2211
     29 C          64.1712   90.3629   15.0175 C.3     1  UNL1        0.0995
     30 N          63.4137   91.0611   16.1078 N.3     1  UNL1       -0.3190
     31 H          64.0408   91.6914   16.6076 H       1  UNL1        0.1189
     32 H          63.0379   90.3699   16.7570 H       1  UNL1        0.1189
     33 C          65.6291   90.6514   14.8137 C.3     1  UNL1        0.0472
     34 C          66.0648   91.9976   14.3157 C.2     1  UNL1       -0.0005
     35 C          66.8484   93.0138   15.0924 C.2     1  UNL1        0.0942
     36 N          67.0612   94.2081   14.2102 N.2     1  UNL1       -0.2482
     37 C          66.4090   93.9301   12.8883 C.2     1  UNL1        0.0631
     38 C          66.2964   94.7445   11.6337 C.3     1  UNL1        0.0717
     39 C          65.5679   94.1926   10.4443 C.2     1  UNL1       -0.0198
     40 C          64.9520   92.8264   10.5095 C.2     1  UNL1       -0.0042
     41 C          65.0647   92.0121   11.7641 C.2     1  UNL1        0.0006
     42 C          65.7932   92.5639   12.9535 C.2     1  UNL1        0.0114
@<TRIPOS>BOND
     1    21    22    1
     2    22    23   ar
     3    23    24   ar
     4    24    25   ar
     5    25    26   ar
     6    26     1    1
     7     1     2   ar
     8     2     3   ar
     9     3     4    1
    10     3     5   ar
    11     5    27    1
    12    27    28    1
    13    28    29    1
    14    29    30    1
    15    29    33    1
    16    33    34    1
    17    34    35    2
    18    35    36    1
    19    36    37    2
    20    37    38    1
    21    38    39    1
    22    39    40    2
    23    40    41    1
    24    41    42    2
    25     5     6   ar
    26     6     7   ar
    27     7    10    1
    28    10    11   ar
    29    11    12   ar
    30    12    13   ar
    31    13    14   ar
    32    14    15   ar
    33    15    16   ar
    34    16    17    1
    35    16    18   ar
    36    18    19   ar
    37    26    22   ar
    38     7     1   ar
    39    19    10   ar
    40    42    34    1
    41    18    13    1
    42    42    37    1
    43     4     8    1
    44     4     9    1
    45    30    31    1
    46    30    32    1
    47    19    20    1
@<TRIPOS>MOLECULE
*****
 42 47 0 0 0
SMALL
GASTEIGER

@<TRIPOS>ATOM
      1 C          63.4636   90.8529   12.5168 C.ar    1  UNL1        0.0870
      2 N          62.2383   90.0959   12.9358 N.ar    1  UNL1       -0.2279
      3 C          61.1433   89.8335   11.9447 C.ar    1  UNL1        0.1596
      4 N          59.9180   89.0765   12.3637 N.pl3   1  UNL1       -0.3402
      5 C          61.2738   90.3281   10.5345 C.ar    1  UNL1        0.1696
      6 C          62.4991   91.0851   10.1155 C.ar    1  UNL1        0.0428
      7 C          63.5940   91.3474   11.1067 C.ar    1  UNL1        0.0380
      8 H          59.8324   88.7519   13.2892 H       1  UNL1        0.1438
      9 H          59.1994   88.9043   11.7132 H       1  UNL1        0.1438
     10 C          64.8193   92.1044   10.6878 C.ar    1  UNL1        0.0777
     11 C          66.1317   91.3909   10.5518 C.ar    1  UNL1        0.1176
     12 N          67.3570   92.1479   10.1328 N.ar    1  UNL1       -0.2209
     13 C          67.2700   93.6183    9.8498 C.ar    1  UNL1        0.2006
     14 N          68.3005   94.6209    9.4223 N.ar    1  UNL1       -0.1272
     15 N          67.6252   95.9541    9.2941 N.ar    1  UNL1       -0.1493
     16 C          66.1771   95.7754    9.6423 C.ar    1  UNL1        0.0995
     17 C          65.1320   96.8514    9.6464 C.3     1  UNL1        0.0557
     18 C          65.9576   94.3318    9.9858 C.ar    1  UNL1        0.1101
     19 N          64.7323   93.5749   10.4047 N.ar    1  UNL1       -0.3484
     20 H          63.8709   94.0432   10.4940 H       1  UNL1        0.1661
     21 C          64.5564   88.7575   14.7672 C.3     1  UNL1        0.0725
     22 C          65.0608   90.1521   14.5423 C.ar    1  UNL1        0.1248
     23 O          66.1561   90.8284   15.3124 O.2     1  UNL1       -0.4546
     24 C          66.3307   92.2096   14.7538 C.ar    1  UNL1        0.1792
     25 C          65.3433   92.3869   13.6386 C.ar    1  UNL1        0.0448
     26 C          64.5585   91.1153   13.5079 C.ar    1  UNL1        0.0512
     27 O          60.1788   90.0657    9.5434 O.3     1  UNL1       -0.4712
     28 C          60.3149   88.9461    8.5546 C.3     1  UNL1        0.2211
     29 C          59.9134   87.5529    8.9392 C.3     1  UNL1        0.0995
     30 N          58.7568   86.8891    8.2525 N.3     1  UNL1       -0.3190
     31 H          58.6255   85.9530    8.6358 H       1  UNL1        0.1189
     32 H          58.9471   86.8235    7.2526 H       1  UNL1        0.1189
     33 C          60.6687   86.8235   10.0105 C.3     1  UNL1        0.0472
     34 C          61.7582   85.8621    9.6381 C.2     1  UNL1       -0.0005
     35 C          62.2763   85.6101    8.2531 C.2     1  UNL1        0.0942
     36 N          63.3592   84.5762    8.3443 N.2     1  UNL1       -0.2482
     37 C          63.5104   84.1892    9.7857 C.2     1  UNL1        0.0631
     38 C          64.4212   83.2159   10.4733 C.3     1  UNL1        0.0717
     39 C          64.3426   83.0372   11.9605 C.2     1  UNL1       -0.0198
     40 C          63.3531   83.8319   12.7601 C.2     1  UNL1       -0.0042
     41 C          62.4423   84.8053   12.0725 C.2     1  UNL1        0.0006
     42 C          62.5209   84.9840   10.5852 C.2     1  UNL1        0.0114
@<TRIPOS>BOND
     1    21    22    1
     2    22    23   ar
     3    23    24   ar
     4    24    25   ar
     5    25    26   ar
     6    26     1    1
     7     1     2   ar
     8     2     3   ar
     9     3     4    1
    10     3     5   ar
    11     5    27    1
    12    27    28    1
    13    28    29    1
    14    29    30    1
    15    29    33    1
    16    33    34    1
    17    34    35    2
    18    35    36    1
    19    36    37    2
    20    37    38    1
    21    38    39    1
    22    39    40    2
    23    40    41    1
    24    41    42    2
    25     5     6   ar
    26     6     7   ar
    27     7    10    1
    28    10    11   ar
    29    11    12   ar
    30    12    13   ar
    31    13    14   ar
    32    14    15   ar
    33    15    16   ar
    34    16    17    1
    35    16    18   ar
    36    18    19   ar
    37    26    22   ar
    38     7     1   ar
    39    19    10   ar
    40    42    34    1
    41    18    13    1
    42    42    37    1
    43     4     8    1
    44     4     9    1
    45    30    31    1
    46    30    32    1
    47    19    20    1
@<TRIPOS>MOLECULE
*****
 42 47 0 0 0
SMALL
GASTEIGER

@<TRIPOS>ATOM
      1 C          62.3820   87.7145    9.8720 C.ar    1  UNL1        0.0870
      2 N          62.4042   89.1571    9.4618 N.ar    1  UNL1       -0.2279
      3 C          62.7750   90.2147   10.4588 C.ar    1  UNL1        0.1596
      4 N          62.7973   91.6573   10.0486 N.pl3   1  UNL1       -0.3402
      5 C          63.1236   89.8296   11.8661 C.ar    1  UNL1        0.1696
      6 C          63.1014   88.3870   12.2763 C.ar    1  UNL1        0.0428
      7 C          62.7305   87.3294   11.2792 C.ar    1  UNL1        0.0380
      8 H          62.5685   91.9101    9.1250 H       1  UNL1        0.1438
      9 H          63.0407   92.3515   10.7029 H       1  UNL1        0.1438
     10 C          62.7083   85.8868   11.6894 C.ar    1  UNL1        0.0777
     11 C          62.7294   84.8098   10.6455 C.ar    1  UNL1        0.1176
     12 N          62.7072   83.3672   11.0557 N.ar    1  UNL1       -0.2209
     13 C          62.6638   83.0014   12.5098 C.ar    1  UNL1        0.2006
     14 N          62.6342   81.6758   13.2109 N.ar    1  UNL1       -0.1272
     15 N          62.5948   81.9333   14.6881 N.ar    1  UNL1       -0.1493
     16 C          62.6000   83.4183   14.8999 C.ar    1  UNL1        0.0995
     17 C          62.5681   84.1198   16.2253 C.3     1  UNL1        0.0557
     18 C          62.6426   84.0784   13.5537 C.ar    1  UNL1        0.1101
     19 N          62.6648   85.5211   13.1435 N.ar    1  UNL1       -0.3484
     20 H          62.6510   86.2279   13.8286 H       1  UNL1        0.1661
     21 C          59.3738   87.0811    8.7769 C.3     1  UNL1        0.0725
     22 C          60.6284   86.3658    8.3717 C.ar    1  UNL1        0.1248
     23 O          60.7206   85.2337    7.3919 O.2     1  UNL1       -0.4546
     24 C          62.1603   84.8252    7.2898 C.ar    1  UNL1        0.1792
     25 C          62.9579   85.7047    8.2064 C.ar    1  UNL1        0.0448
     26 C          62.0111   86.6569    8.8750 C.ar    1  UNL1        0.0512
     27 O          63.4945   90.8872   12.8631 O.3     1  UNL1       -0.4712
     28 C          64.5280   90.6001   13.9115 C.3     1  UNL1        0.2211
     29 C          65.5381   91.6476   14.2755 C.3     1  UNL1        0.0995
     30 N          65.3680   92.4490   15.5320 N.3     1  UNL1       -0.3190
     31 H          66.1401   93.1095   15.6212 H       1  UNL1        0.1189
     32 H          65.3619   91.8224   16.3368 H       1  UNL1        0.1189
     33 C          66.7184   91.8936   13.3830 C.3     1  UNL1        0.0472
     34 C          66.6930   93.0277   12.4015 C.2     1  UNL1       -0.0005
     35 C          66.0581   94.3689   12.6202 C.2     1  UNL1        0.0942
     36 N          66.2708   95.1897   11.3828 N.2     1  UNL1       -0.2482
     37 C          67.0371   94.3557   10.3993 C.2     1  UNL1        0.0631
     38 C          67.5309   94.6403    9.0119 C.3     1  UNL1        0.0717
     39 C          68.2857   93.5887    8.2540 C.2     1  UNL1       -0.0198
     40 C          68.5467   92.2525    8.8836 C.2     1  UNL1       -0.0042
     41 C          68.0528   91.9678   10.2711 C.2     1  UNL1        0.0006
     42 C          67.2980   93.0194   11.0289 C.2     1  UNL1        0.0114
@<TRIPOS>BOND
     1    21    22    1
     2    22    23   ar
     3    23    24   ar
     4    24    25   ar
     5    25    26   ar
     6    26     1    1
     7     1     2   ar
     8     2     3   ar
     9     3     4    1
    10     3     5   ar
    11     5    27    1
    12    27    28    1
    13    28    29    1
    14    29    30    1
    15    29    33    1
    16    33    34    1
    17    34    35    2
    18    35    36    1
    19    36    37    2
    20    37    38    1
    21    38    39    1
    22    39    40    2
    23    40    41    1
    24    41    42    2
    25     5     6   ar
    26     6     7   ar
    27     7    10    1
    28    10    11   ar
    29    11    12   ar
    30    12    13   ar
    31    13    14   ar
    32    14    15   ar
    33    15    16   ar
    34    16    17    1
    35    16    18   ar
    36    18    19   ar
    37    26    22   ar
    38     7     1   ar
    39    19    10   ar
    40    42    34    1
    41    18    13    1
    42    42    37    1
    43     4     8    1
    44     4     9    1
    45    30    31    1
    46    30    32    1
    47    19    20    1
@<TRIPOS>MOLECULE
*****
 42 47 0 0 0
SMALL
GASTEIGER

@<TRIPOS>ATOM
      1 C          63.1853   86.9408   12.7075 C.ar    1  UNL1        0.0870
      2 N          64.0251   87.4564   13.8384 N.ar    1  UNL1       -0.2279
      3 C          64.2070   88.9337   14.0246 C.ar    1  UNL1        0.1596
      4 N          65.0468   89.4493   15.1554 N.pl3   1  UNL1       -0.3402
      5 C          63.5492   89.8953   13.0797 C.ar    1  UNL1        0.1696
      6 C          62.7094   89.3797   11.9488 C.ar    1  UNL1        0.0428
      7 C          62.5275   87.9024   11.7628 C.ar    1  UNL1        0.0380
      8 H          65.4785   88.8182   15.7755 H       1  UNL1        0.1438
      9 H          65.1662   90.4189   15.2776 H       1  UNL1        0.1438
     10 C          61.6878   87.3867   10.6319 C.ar    1  UNL1        0.0777
     11 C          60.2256   87.7164   10.5725 C.ar    1  UNL1        0.1176
     12 N          59.3859   87.2007    9.4416 N.ar    1  UNL1       -0.2209
     13 C          60.0082   86.3554    8.3701 C.ar    1  UNL1        0.2006
     14 N          59.4370   85.7100    7.1425 N.ar    1  UNL1       -0.1272
     15 N          60.5461   84.9814    6.4430 N.ar    1  UNL1       -0.1493
     16 C          61.8027   85.1766    7.2386 C.ar    1  UNL1        0.0995
     17 C          63.1545   84.6202    6.9021 C.3     1  UNL1        0.0557
     18 C          61.4703   86.0258    8.4295 C.ar    1  UNL1        0.1101
     19 N          62.3100   86.5414    9.5604 N.ar    1  UNL1       -0.3484
     20 H          63.2697   86.3250    9.5994 H       1  UNL1        0.1661
     21 C          62.2849   84.8136   15.0127 C.3     1  UNL1        0.0725
     22 C          62.5895   84.4858   13.5810 C.ar    1  UNL1        0.1248
     23 O          62.5337   83.1226   12.9575 O.2     1  UNL1       -0.4546
     24 C          62.9131   83.2580   11.5126 C.ar    1  UNL1        0.1792
     25 C          63.2034   84.7047   11.2430 C.ar    1  UNL1        0.0448
     26 C          63.0034   85.4635   12.5214 C.ar    1  UNL1        0.0512
     27 O          63.7311   91.3726   13.2659 O.3     1  UNL1       -0.4712
     28 C          64.7139   92.1203   12.4144 C.3     1  UNL1        0.2211
     29 C          66.0417   92.5259   12.9821 C.3     1  UNL1        0.0995
     30 N          66.1047   93.2826   14.2757 N.3     1  UNL1       -0.3190
     31 H          67.0786   93.4743   14.5104 H       1  UNL1        0.1189
     32 H          65.6798   92.7251   15.0168 H       1  UNL1        0.1189
     33 C          67.3066   92.1748   12.2562 C.3     1  UNL1        0.0472
     34 C          67.5529   92.7100   10.8767 C.2     1  UNL1       -0.0005
     35 C          68.2469   91.9863    9.7611 C.2     1  UNL1        0.0942
     36 N          68.2713   92.8919    8.5656 N.2     1  UNL1       -0.2482
     37 C          67.5923   94.1753    8.9423 C.2     1  UNL1        0.0631
     38 C          67.3210   95.4317    8.1692 C.3     1  UNL1        0.0717
     39 C          66.6056   96.5758    8.8245 C.2     1  UNL1       -0.0198
     40 C          66.1616   96.4633   10.2529 C.2     1  UNL1       -0.0042
     41 C          66.4329   95.2069   11.0259 C.2     1  UNL1        0.0006
     42 C          67.1483   94.0629   10.3707 C.2     1  UNL1        0.0114
@<TRIPOS>BOND
     1    21    22    1
     2    22    23   ar
     3    23    24   ar
     4    24    25   ar
     5    25    26   ar
     6    26     1    1
     7     1     2   ar
     8     2     3   ar
     9     3     4    1
    10     3     5   ar
    11     5    27    1
    12    27    28    1
    13    28    29    1
    14    29    30    1
    15    29    33    1
    16    33    34    1
    17    34    35    2
    18    35    36    1
    19    36    37    2
    20    37    38    1
    21    38    39    1
    22    39    40    2
    23    40    41    1
    24    41    42    2
    25     5     6   ar
    26     6     7   ar
    27     7    10    1
    28    10    11   ar
    29    11    12   ar
    30    12    13   ar
    31    13    14   ar
    32    14    15   ar
    33    15    16   ar
    34    16    17    1
    35    16    18   ar
    36    18    19   ar
    37    26    22   ar
    38     7     1   ar
    39    19    10   ar
    40    42    34    1
    41    18    13    1
    42    42    37    1
    43     4     8    1
    44     4     9    1
    45    30    31    1
    46    30    32    1
    47    19    20    1
@<TRIPOS>MOLECULE
*****
 42 47 0 0 0
SMALL
GASTEIGER

@<TRIPOS>ATOM
      1 C          63.3265   83.5628   13.1904 C.ar    1  UNL1        0.0870
      2 N          63.6636   83.5444   14.6519 N.ar    1  UNL1       -0.2279
      3 C          63.8861   84.8331   15.3866 C.ar    1  UNL1        0.1596
      4 N          64.2232   84.8147   16.8481 N.pl3   1  UNL1       -0.3402
      5 C          63.7715   86.1403   14.6597 C.ar    1  UNL1        0.1696
      6 C          63.4344   86.1587   13.1982 C.ar    1  UNL1        0.0428
      7 C          63.2119   84.8699   12.4636 C.ar    1  UNL1        0.0380
      8 H          64.2984   83.9568   17.3251 H       1  UNL1        0.1438
      9 H          64.3692   85.6605   17.3303 H       1  UNL1        0.1438
     10 C          62.8748   84.8883   11.0021 C.ar    1  UNL1        0.0777
     11 C          63.7696   84.1959   10.0172 C.ar    1  UNL1        0.1176
     12 N          63.4325   84.2143    8.5557 N.ar    1  UNL1       -0.2209
     13 C          62.2006   84.9251    8.0790 C.ar    1  UNL1        0.2006
     14 N          61.6156   85.1115    6.7105 N.ar    1  UNL1       -0.1272
     15 N          60.3592   85.9191    6.8494 N.ar    1  UNL1       -0.1493
     16 C          60.1677   86.2318    8.3039 C.ar    1  UNL1        0.0995
     17 C          59.0368   87.0203    8.8948 C.3     1  UNL1        0.0557
     18 C          61.3058   85.6174    9.0639 C.ar    1  UNL1        0.1101
     19 N          61.6429   85.5990   10.5254 N.ar    1  UNL1       -0.3484
     20 H          61.0556   86.0535   11.1717 H       1  UNL1        0.1661
     21 C          61.3483   81.1405   14.1223 C.3     1  UNL1        0.0725
     22 C          62.1947   81.1606   12.8841 C.ar    1  UNL1        0.1248
     23 O          62.2804   80.0710   11.8568 O.2     1  UNL1       -0.4546
     24 C          63.2427   80.5110   10.7936 C.ar    1  UNL1        0.1792
     25 C          63.7517   81.8726   11.1637 C.ar    1  UNL1        0.0448
     26 C          63.1040   82.2741   12.4557 C.ar    1  UNL1        0.0512
     27 O          63.9940   87.4290   15.3944 O.3     1  UNL1       -0.4712
     28 C          64.4424   88.6501   14.6476 C.3     1  UNL1        0.2211
     29 C          63.7313   89.9554   14.8489 C.3     1  UNL1        0.0995
     30 N          62.2573   90.0544   14.5888 N.3     1  UNL1       -0.3190
     31 H          61.9424   91.0066   14.7751 H       1  UNL1        0.1189
     32 H          61.7600   89.4062   15.1995 H       1  UNL1        0.1189
     33 C          64.4942   91.1618   15.3102 C.3     1  UNL1        0.0472
     34 C          65.6752   91.6483   14.5237 C.2     1  UNL1       -0.0005
     35 C          67.0579   91.8754   15.0589 C.2     1  UNL1        0.0942
     36 N          67.9181   92.3605   13.9299 N.2     1  UNL1       -0.2482
     37 C          67.0670   92.4332   12.6968 C.2     1  UNL1        0.0631
     38 C          67.3751   92.8433   11.2873 C.3     1  UNL1        0.0717
     39 C          66.2971   92.8132   10.2448 C.2     1  UNL1       -0.0198
     40 C          64.9109   92.3730   10.6118 C.2     1  UNL1       -0.0042
     41 C          64.6028   91.9629   12.0213 C.2     1  UNL1        0.0006
     42 C          65.6808   91.9930   13.0638 C.2     1  UNL1        0.0114
@<TRIPOS>BOND
     1    21    22    1
     2    22    23   ar
     3    23    24   ar
     4    24    25   ar
     5    25    26   ar
     6    26     1    1
     7     1     2   ar
     8     2     3   ar
     9     3     4    1
    10     3     5   ar
    11     5    27    1
    12    27    28    1
    13    28    29    1
    14    29    30    1
    15    29    33    1
    16    33    34    1
    17    34    35    2
    18    35    36    1
    19    36    37    2
    20    37    38    1
    21    38    39    1
    22    39    40    2
    23    40    41    1
    24    41    42    2
    25     5     6   ar
    26     6     7   ar
    27     7    10    1
    28    10    11   ar
    29    11    12   ar
    30    12    13   ar
    31    13    14   ar
    32    14    15   ar
    33    15    16   ar
    34    16    17    1
    35    16    18   ar
    36    18    19   ar
    37    26    22   ar
    38     7     1   ar
    39    19    10   ar
    40    42    34    1
    41    18    13    1
    42    42    37    1
    43     4     8    1
    44     4     9    1
    45    30    31    1
    46    30    32    1
    47    19    20    1
@<TRIPOS>MOLECULE
*****
 42 47 0 0 0
SMALL
GASTEIGER

@<TRIPOS>ATOM
      1 C          64.3286   91.8135   11.1363 C.ar    1  UNL1        0.0870
      2 N          63.4492   91.3843    9.9995 N.ar    1  UNL1       -0.2279
      3 C          62.4023   90.3323   10.2170 C.ar    1  UNL1        0.1596
      4 N          61.5228   89.9031    9.0801 N.pl3   1  UNL1       -0.3402
      5 C          62.2347   89.7096   11.5714 C.ar    1  UNL1        0.1696
      6 C          63.1141   90.1388   12.7082 C.ar    1  UNL1        0.0428
      7 C          64.1611   91.1908   12.4906 C.ar    1  UNL1        0.0380
      8 H          61.6328   90.3118    8.1913 H       1  UNL1        0.1438
      9 H          60.8357   89.2127    9.2229 H       1  UNL1        0.1438
     10 C          65.0405   91.6200   13.6274 C.ar    1  UNL1        0.0777
     11 C          64.4332   91.9802   14.9509 C.ar    1  UNL1        0.1176
     12 N          65.3126   92.4094   16.0877 N.ar    1  UNL1       -0.2209
     13 C          66.7993   92.4784   15.9012 C.ar    1  UNL1        0.2006
     14 N          67.9109   92.8633   16.8319 N.ar    1  UNL1       -0.1272
     15 N          69.2053   92.7410   16.0838 N.ar    1  UNL1       -0.1493
     16 C          68.8936   92.2805   14.6906 C.ar    1  UNL1        0.0995
     17 C          69.8934   92.0268   13.6015 C.3     1  UNL1        0.0557
     18 C          67.4066   92.1182   14.5778 C.ar    1  UNL1        0.1101
     19 N          66.5272   91.6890   13.4409 N.ar    1  UNL1       -0.3484
     20 H          66.9259   91.4526   12.5724 H       1  UNL1        0.1661
     21 C          67.3347   91.3152    9.9684 C.3     1  UNL1        0.0725
     22 C          66.7574   92.6364   10.3820 C.ar    1  UNL1        0.1248
     23 O          67.4604   93.9605   10.3314 O.2     1  UNL1       -0.4546
     24 C          66.5131   95.0078   10.8370 C.ar    1  UNL1        0.1792
     25 C          65.2246   94.3311   11.2001 C.ar    1  UNL1        0.0448
     26 C          65.3756   92.8655   10.9189 C.ar    1  UNL1        0.0512
     27 O          61.1878   88.6576   11.7888 O.3     1  UNL1       -0.4712
     28 C          60.9775   87.5852   10.7614 C.3     1  UNL1        0.2211
     29 C          62.0938   86.6423   10.4224 C.3     1  UNL1        0.0995
     30 N          62.5464   86.4965    8.9997 N.3     1  UNL1       -0.3190
     31 H          63.3079   85.8195    8.9529 H       1  UNL1        0.1189
     32 H          62.8718   87.3987    8.6523 H       1  UNL1        0.1189
     33 C          62.7575   85.8452   11.5060 C.3     1  UNL1        0.0472
     34 C          63.0206   84.3819   11.3068 C.2     1  UNL1       -0.0005
     35 C          63.6055   83.7506   10.0782 C.2     1  UNL1        0.0942
     36 N          63.6914   82.2716   10.3132 N.2     1  UNL1       -0.2482
     37 C          63.1596   81.9889   11.6870 C.2     1  UNL1        0.0631
     38 C          62.9993   80.7124   12.4582 C.3     1  UNL1        0.0717
     39 C          62.4244   80.7401   13.8433 C.2     1  UNL1       -0.0198
     40 C          62.0099   82.0444   14.4574 C.2     1  UNL1       -0.0042
     41 C          62.1702   83.3209   13.6862 C.2     1  UNL1        0.0006
     42 C          62.7450   83.2932   12.3011 C.2     1  UNL1        0.0114
@<TRIPOS>BOND
     1    21    22    1
     2    22    23   ar
     3    23    24   ar
     4    24    25   ar
     5    25    26   ar
     6    26     1    1
     7     1     2   ar
     8     2     3   ar
     9     3     4    1
    10     3     5   ar
    11     5    27    1
    12    27    28    1
    13    28    29    1
    14    29    30    1
    15    29    33    1
    16    33    34    1
    17    34    35    2
    18    35    36    1
    19    36    37    2
    20    37    38    1
    21    38    39    1
    22    39    40    2
    23    40    41    1
    24    41    42    2
    25     5     6   ar
    26     6     7   ar
    27     7    10    1
    28    10    11   ar
    29    11    12   ar
    30    12    13   ar
    31    13    14   ar
    32    14    15   ar
    33    15    16   ar
    34    16    17    1
    35    16    18   ar
    36    18    19   ar
    37    26    22   ar
    38     7     1   ar
    39    19    10   ar
    40    42    34    1
    41    18    13    1
    42    42    37    1
    43     4     8    1
    44     4     9    1
    45    30    31    1
    46    30    32    1
    47    19    20    1
