@<TRIPOS>MOLECULE
*****
 42 47 0 0 0
SMALL
GASTEIGER

@<TRIPOS>ATOM
      1 C          63.3977   87.0359   12.7951 C.ar    1  UNL1        0.1343
      2 N          63.6280   88.4956   13.0523 N.ar    1  UNL1       -0.1988
      3 C          63.8226   88.9882   14.4556 C.ar    1  UNL1        0.2218
      4 N          63.7868   88.0212   15.6017 N.ar    1  UNL1       -0.2119
      5 C          63.5566   86.5615   15.3445 C.ar    1  UNL1        0.1061
      6 C          63.3620   86.0688   13.9412 C.ar    1  UNL1        0.0683
      7 C          63.1317   84.6091   13.6839 C.ar    1  UNL1        0.0854
      8 C          62.6163   83.7262   14.7816 C.ar    1  UNL1        0.0193
      9 C          62.3860   82.2665   14.5244 C.ar    1  UNL1        0.0030
     10 C          62.6711   81.6896   13.1694 C.ar    1  UNL1        0.0177
     11 C          62.4408   80.2299   12.9122 C.ar    1  UNL1        0.0015
     12 C          62.7259   79.6531   11.5572 C.ar    1  UNL1        0.0001
     13 C          63.2412   80.5359   10.4595 C.ar    1  UNL1        0.0015
     14 C          63.4715   81.9956   10.7167 C.ar    1  UNL1        0.0191
     15 C          63.1865   82.5724   12.0717 C.ar    1  UNL1        0.0813
     16 N          63.4168   84.0322   12.3290 N.ar    1  UNL1       -0.2452
     17 N          63.2031   86.5431   11.3917 N.pl3   1  UNL1       -0.3172
     18 H          63.7903   85.8400   11.0310 H       1  UNL1        0.1482
     19 C          60.1551   87.3254    9.1195 C.3     1  UNL1        0.0604
     20 C          61.0162   86.3507    9.8668 C.3     1  UNL1        0.0271
     21 C          62.1140   87.1217   10.5379 C.3     1  UNL1        0.0998
     22 C          61.9313   88.5729   10.2054 C.3     1  UNL1        0.1549
     23 O          62.8057   89.7004   10.6683 O.3     1  UNL1       -0.3803
     24 C          60.7206   88.6988    9.3287 C.3     1  UNL1        0.1412
     25 O          60.1719   89.9742    8.7611 O.3     1  UNL1       -0.3818
     26 H          62.4692   90.5377   10.3124 H       1  UNL1        0.2105
     27 H          60.7229   90.7192    9.0479 H       1  UNL1        0.2104
     28 O          58.3767   87.9915    7.3465 O.3     1  UNL1       -0.3819
     29 C          58.9415   86.9862    8.3058 C.3     1  UNL1        0.1396
     30 H          57.5994   87.6156    6.9045 H       1  UNL1        0.2104
     31 N          64.0529   90.4480   14.7129 N.pl3   1  UNL1       -0.2823
     32 H          63.4703   90.9353   15.3393 H       1  UNL1        0.1551
     33 C          65.1707   91.1652   14.0157 C.ar    1  UNL1        0.0567
     34 C          66.5357   91.2094   14.6362 C.ar    1  UNL1        0.0356
     35 C          67.6535   91.9266   13.9391 C.ar    1  UNL1        0.1033
     36 N          67.4064   92.5996   12.6214 N.ar    1  UNL1       -0.2101
     37 C          66.0415   92.5553   12.0010 C.ar    1  UNL1        0.2260
     38 C          64.9236   91.8381   12.6982 C.ar    1  UNL1        0.0724
     39 O          65.7944   93.2282   10.6834 O.3     1  UNL1       -0.4640
     40 C          66.9463   93.5516    9.7787 C.3     1  UNL1        0.1678
     41 C          68.1879   93.1248    9.0533 C.3     1  UNL1        0.0473
     42 C          67.6999   94.5384    8.9372 C.3     1  UNL1        0.0473
@<TRIPOS>BOND
     1    28    29    1
     2    19    29    1
     3    19    20    1
     4    20    21    1
     5    21    17    1
     6    17     1    1
     7     1     2   ar
     8     2     3   ar
     9     3    31    1
    10    31    33    1
    11    33    34   ar
    12    34    35   ar
    13    35    36   ar
    14    36    37   ar
    15    37    39    1
    16    39    40    1
    17    40    41    1
    18    41    42    1
    19    37    38   ar
    20     3     4   ar
    21     4     5   ar
    22     5     6   ar
    23     6     7    1
    24     7     8   ar
    25     8     9   ar
    26     9    10   ar
    27    10    11   ar
    28    11    12   ar
    29    12    13   ar
    30    13    14   ar
    31    14    15   ar
    32    15    16   ar
    33    21    22    1
    34    22    23    1
    35    22    24    1
    36    24    25    1
    37    24    19    1
    38     6     1   ar
    39    16     7   ar
    40    38    33   ar
    41    15    10   ar
    42    42    40    1
    43    28    30    1
    44    17    18    1
    45    31    32    1
    46    23    26    1
    47    25    27    1
@<TRIPOS>MOLECULE
*****
 42 47 0 0 0
SMALL
GASTEIGER

@<TRIPOS>ATOM
      1 C          63.4334   87.9041   12.6944 C.ar    1  UNL1        0.1343
      2 N          64.0206   88.6684   13.8437 N.ar    1  UNL1       -0.1988
      3 C          63.6374   90.1016   14.0651 C.ar    1  UNL1        0.2218
      4 N          62.6670   90.7705   13.1373 N.ar    1  UNL1       -0.2119
      5 C          62.0797   90.0061   11.9880 C.ar    1  UNL1        0.1061
      6 C          62.4629   88.5730   11.7666 C.ar    1  UNL1        0.0683
      7 C          61.8757   87.8085   10.6173 C.ar    1  UNL1        0.0854
      8 C          60.4220   87.9604   10.2802 C.ar    1  UNL1        0.0193
      9 C          59.8347   87.1961    9.1309 C.ar    1  UNL1        0.0030
     10 C          60.7012   86.2798    8.3187 C.ar    1  UNL1        0.0177
     11 C          60.1139   85.5154    7.1694 C.ar    1  UNL1        0.0015
     12 C          60.9803   84.5992    6.3572 C.ar    1  UNL1        0.0001
     13 C          62.4341   84.4473    6.6943 C.ar    1  UNL1        0.0015
     14 C          63.0213   85.2117    7.8435 C.ar    1  UNL1        0.0191
     15 C          62.1549   86.1279    8.6557 C.ar    1  UNL1        0.0813
     16 N          62.7421   86.8923    9.8051 N.ar    1  UNL1       -0.2452
     17 N          63.8166   86.4708   12.4729 N.pl3   1  UNL1       -0.3172
     18 H          64.4054   86.2291   11.7219 H       1  UNL1        0.1482
     19 C          62.3421   83.3370   14.2252 C.3     1  UNL1        0.0604
     20 C          62.7263   84.0841   12.9825 C.3     1  UNL1        0.0271
     21 C          63.3025   85.4059   13.3957 C.3     1  UNL1        0.0998
     22 C          63.2745   85.4757   14.8938 C.3     1  UNL1        0.1549
     23 O          63.7556   86.6227   15.7322 O.3     1  UNL1       -0.3803
     24 C          62.6809   84.1971   15.4065 C.3     1  UNL1        0.1412
     25 O          62.4643   83.8410   16.8474 O.3     1  UNL1       -0.3818
     26 H          63.6251   86.4145   16.6705 H       1  UNL1        0.2105
     27 H          62.7689   84.5702   17.4100 H       1  UNL1        0.2104
     28 O          62.5617   80.7865   14.6686 O.3     1  UNL1       -0.3819
     29 C          61.7271   81.9699   14.2774 C.3     1  UNL1        0.1396
     30 H          62.0148   79.9855   14.6520 H       1  UNL1        0.2104
     31 N          64.2247   90.8660   15.2145 N.pl3   1  UNL1       -0.2823
     32 H          63.7396   90.9190   16.0695 H       1  UNL1        0.1551
     33 C          65.5510   91.5496   15.0610 C.ar    1  UNL1        0.0567
     34 C          66.0391   92.4873   16.1252 C.ar    1  UNL1        0.0356
     35 C          67.3654   93.1709   15.9717 C.ar    1  UNL1        0.1033
     36 N          68.2037   92.9168   14.7539 N.ar    1  UNL1       -0.2101
     37 C          67.7155   91.9792   13.6897 C.ar    1  UNL1        0.2260
     38 C          66.3892   91.2956   13.8433 C.ar    1  UNL1        0.0724
     39 O          68.5537   91.7252   12.4720 O.3     1  UNL1       -0.4640
     40 C          68.0360   92.0970   11.1142 C.3     1  UNL1        0.1678
     41 C          68.2237   92.1708    9.6279 C.3     1  UNL1        0.0473
     42 C          66.9517   92.6674   10.2488 C.3     1  UNL1        0.0473
@<TRIPOS>BOND
     1    28    29    1
     2    19    29    1
     3    19    20    1
     4    20    21    1
     5    21    17    1
     6    17     1    1
     7     1     2   ar
     8     2     3   ar
     9     3    31    1
    10    31    33    1
    11    33    34   ar
    12    34    35   ar
    13    35    36   ar
    14    36    37   ar
    15    37    39    1
    16    39    40    1
    17    40    41    1
    18    41    42    1
    19    37    38   ar
    20     3     4   ar
    21     4     5   ar
    22     5     6   ar
    23     6     7    1
    24     7     8   ar
    25     8     9   ar
    26     9    10   ar
    27    10    11   ar
    28    11    12   ar
    29    12    13   ar
    30    13    14   ar
    31    14    15   ar
    32    15    16   ar
    33    21    22    1
    34    22    23    1
    35    22    24    1
    36    24    25    1
    37    24    19    1
    38     6     1   ar
    39    16     7   ar
    40    38    33   ar
    41    15    10   ar
    42    42    40    1
    43    28    30    1
    44    17    18    1
    45    31    32    1
    46    23    26    1
    47    25    27    1
@<TRIPOS>MOLECULE
*****
 42 47 0 0 0
SMALL
GASTEIGER

@<TRIPOS>ATOM
      1 C          63.5963   89.3024   12.9341 C.ar    1  UNL1        0.1343
      2 N          62.5085   88.4445   12.3592 N.ar    1  UNL1       -0.1988
      3 C          61.6348   88.9763   11.2621 C.ar    1  UNL1        0.2218
      4 N          61.8489   90.3660   10.7398 N.ar    1  UNL1       -0.2119
      5 C          62.9368   91.2240   11.3147 C.ar    1  UNL1        0.1061
      6 C          63.8104   90.6922   12.4119 C.ar    1  UNL1        0.0683
      7 C          64.8983   91.5501   12.9868 C.ar    1  UNL1        0.0854
      8 C          65.2249   92.8707   12.3549 C.ar    1  UNL1        0.0193
      9 C          66.3127   93.7287   12.9298 C.ar    1  UNL1        0.0030
     10 C          67.0740   93.2660   14.1367 C.ar    1  UNL1        0.0177
     11 C          68.1618   94.1239   14.7116 C.ar    1  UNL1        0.0015
     12 C          68.9230   93.6613   15.9184 C.ar    1  UNL1        0.0001
     13 C          68.5964   92.3406   16.5503 C.ar    1  UNL1        0.0015
     14 C          67.5086   91.4827   15.9754 C.ar    1  UNL1        0.0191
     15 C          66.7474   91.9454   14.7686 C.ar    1  UNL1        0.0813
     16 N          65.6595   91.0874   14.1936 N.ar    1  UNL1       -0.2452
     17 N          64.4700   88.7706   14.0314 N.pl3   1  UNL1       -0.3172
     18 H          65.2909   89.2519   14.2839 H       1  UNL1        0.1482
     19 C          63.8335   85.1561   15.2947 C.3     1  UNL1        0.0604
     20 C          64.3902   86.1104   14.2801 C.3     1  UNL1        0.0271
     21 C          64.0930   87.5056   14.7438 C.3     1  UNL1        0.0998
     22 C          63.3525   87.4136   16.0450 C.3     1  UNL1        0.1549
     23 O          62.8590   88.5705   16.8624 O.3     1  UNL1       -0.3803
     24 C          63.1921   85.9616   16.3855 C.3     1  UNL1        0.1412
     25 O          62.5101   85.4116   17.6030 O.3     1  UNL1       -0.3818
     26 H          62.4132   88.2381   17.6571 H       1  UNL1        0.2105
     27 H          62.1819   86.1437   18.1482 H       1  UNL1        0.2104
     28 O          62.7388   82.8320   15.6820 O.3     1  UNL1       -0.3819
     29 C          63.9055   83.6593   15.2298 C.3     1  UNL1        0.1396
     30 H          62.9486   81.8911   15.5747 H       1  UNL1        0.2104
     31 N          60.5469   88.1183   10.6871 N.pl3   1  UNL1       -0.2823
     32 H          59.6255   88.2002   11.0241 H       1  UNL1        0.1551
     33 C          60.8630   87.1357    9.5987 C.ar    1  UNL1        0.0567
     34 C          59.9477   87.0048    8.4175 C.ar    1  UNL1        0.0356
     35 C          60.2637   86.0222    7.3291 C.ar    1  UNL1        0.1033
     36 N          61.4951   85.1705    7.4219 N.ar    1  UNL1       -0.2101
     37 C          62.4103   85.3014    8.6031 C.ar    1  UNL1        0.2260
     38 C          62.0942   86.2841    9.6915 C.ar    1  UNL1        0.0724
     39 O          63.6415   84.4498    8.6959 O.3     1  UNL1       -0.4640
     40 C          63.8439   83.5504    9.8791 C.3     1  UNL1        0.1678
     41 C          64.0931   83.3717   11.3474 C.3     1  UNL1        0.0473
     42 C          63.9454   82.1713   10.4602 C.3     1  UNL1        0.0473
@<TRIPOS>BOND
     1    28    29    1
     2    19    29    1
     3    19    20    1
     4    20    21    1
     5    21    17    1
     6    17     1    1
     7     1     2   ar
     8     2     3   ar
     9     3    31    1
    10    31    33    1
    11    33    34   ar
    12    34    35   ar
    13    35    36   ar
    14    36    37   ar
    15    37    39    1
    16    39    40    1
    17    40    41    1
    18    41    42    1
    19    37    38   ar
    20     3     4   ar
    21     4     5   ar
    22     5     6   ar
    23     6     7    1
    24     7     8   ar
    25     8     9   ar
    26     9    10   ar
    27    10    11   ar
    28    11    12   ar
    29    12    13   ar
    30    13    14   ar
    31    14    15   ar
    32    15    16   ar
    33    21    22    1
    34    22    23    1
    35    22    24    1
    36    24    25    1
    37    24    19    1
    38     6     1   ar
    39    16     7   ar
    40    38    33   ar
    41    15    10   ar
    42    42    40    1
    43    28    30    1
    44    17    18    1
    45    31    32    1
    46    23    26    1
    47    25    27    1
@<TRIPOS>MOLECULE
*****
 42 47 0 0 0
SMALL
GASTEIGER

@<TRIPOS>ATOM
      1 C          62.1154   87.4264   12.4664 C.ar    1  UNL1        0.1343
      2 N          62.2306   88.9139   12.3111 N.ar    1  UNL1       -0.1988
      3 C          63.3615   89.6508   12.9652 C.ar    1  UNL1        0.2218
      4 N          64.3773   88.9003   13.7745 N.ar    1  UNL1       -0.2119
      5 C          64.2620   87.4128   13.9298 C.ar    1  UNL1        0.1061
      6 C          63.1311   86.6759   13.2757 C.ar    1  UNL1        0.0683
      7 C          63.0158   85.1883   13.4309 C.ar    1  UNL1        0.0854
      8 C          62.8513   84.5872   14.7953 C.ar    1  UNL1        0.0193
      9 C          62.7360   83.0997   14.9506 C.ar    1  UNL1        0.0030
     10 C          62.7853   82.2134   13.7414 C.ar    1  UNL1        0.0177
     11 C          62.6700   80.7259   13.8967 C.ar    1  UNL1        0.0015
     12 C          62.7193   79.8396   12.6876 C.ar    1  UNL1        0.0001
     13 C          62.8838   80.4408   11.3232 C.ar    1  UNL1        0.0015
     14 C          62.9991   81.9282   11.1679 C.ar    1  UNL1        0.0191
     15 C          62.9498   82.8145   12.3770 C.ar    1  UNL1        0.0813
     16 N          63.0651   84.3020   12.2218 N.ar    1  UNL1       -0.2452
     17 N          60.9844   86.6894   11.8123 N.pl3   1  UNL1       -0.3172
     18 H          60.3805   86.1325   12.3549 H       1  UNL1        0.1482
     19 C          60.7124   86.2760    7.9625 C.3     1  UNL1        0.0604
     20 C          61.0757   85.7396    9.3154 C.3     1  UNL1        0.0271
     21 C          60.7735   86.8009   10.3314 C.3     1  UNL1        0.0998
     22 C          60.2234   87.9933    9.6064 C.3     1  UNL1        0.1549
     23 O          59.7876   89.2836   10.2351 O.3     1  UNL1       -0.3803
     24 C          60.1856   87.6689    8.1424 C.3     1  UNL1        0.1412
     25 O          59.7054   88.5778    7.0500 O.3     1  UNL1       -0.3818
     26 H          59.4721   89.8887    9.5458 H       1  UNL1        0.2105
     27 H          59.4176   89.4208    7.4340 H       1  UNL1        0.2104
     28 O          62.0225   84.6388    6.4285 O.3     1  UNL1       -0.3819
     29 C          60.8514   85.5475    6.6587 C.3     1  UNL1        0.1396
     30 H          61.9606   84.2499    5.5421 H       1  UNL1        0.2104
     31 N          63.4768   91.1383   12.8100 N.pl3   1  UNL1       -0.2823
     32 H          62.7212   91.7191   13.0570 H       1  UNL1        0.1551
     33 C          64.7434   91.7410   12.2784 C.ar    1  UNL1        0.0567
     34 C          64.7614   92.3678   10.9157 C.ar    1  UNL1        0.0356
     35 C          66.0280   92.9705   10.3842 C.ar    1  UNL1        0.1033
     36 N          67.2766   92.9463   11.2153 N.ar    1  UNL1       -0.2101
     37 C          67.2584   92.3195   12.5779 C.ar    1  UNL1        0.2260
     38 C          65.9919   91.7169   13.1095 C.ar    1  UNL1        0.0724
     39 O          68.5069   92.2954   13.4089 O.3     1  UNL1       -0.4640
     40 C          68.4463   92.6538   14.8642 C.3     1  UNL1        0.1678
     41 C          68.5399   92.2514   16.3061 C.3     1  UNL1        0.0473
     42 C          68.2475   93.6771   15.9428 C.3     1  UNL1        0.0473
@<TRIPOS>BOND
     1    28    29    1
     2    19    29    1
     3    19    20    1
     4    20    21    1
     5    21    17    1
     6    17     1    1
     7     1     2   ar
     8     2     3   ar
     9     3    31    1
    10    31    33    1
    11    33    34   ar
    12    34    35   ar
    13    35    36   ar
    14    36    37   ar
    15    37    39    1
    16    39    40    1
    17    40    41    1
    18    41    42    1
    19    37    38   ar
    20     3     4   ar
    21     4     5   ar
    22     5     6   ar
    23     6     7    1
    24     7     8   ar
    25     8     9   ar
    26     9    10   ar
    27    10    11   ar
    28    11    12   ar
    29    12    13   ar
    30    13    14   ar
    31    14    15   ar
    32    15    16   ar
    33    21    22    1
    34    22    23    1
    35    22    24    1
    36    24    25    1
    37    24    19    1
    38     6     1   ar
    39    16     7   ar
    40    38    33   ar
    41    15    10   ar
    42    42    40    1
    43    28    30    1
    44    17    18    1
    45    31    32    1
    46    23    26    1
    47    25    27    1
@<TRIPOS>MOLECULE
*****
 42 47 0 0 0
SMALL
GASTEIGER

@<TRIPOS>ATOM
      1 C          63.2294   87.0601   12.3367 C.ar    1  UNL1        0.1343
      2 N          63.1886   88.5492   12.1610 N.ar    1  UNL1       -0.1988
      3 C          62.6704   89.1396   10.8832 C.ar    1  UNL1        0.2218
      4 N          62.1931   88.2410    9.7811 N.ar    1  UNL1       -0.2119
      5 C          62.2339   86.7519    9.9569 C.ar    1  UNL1        0.1061
      6 C          62.7521   86.1615   11.2347 C.ar    1  UNL1        0.0683
      7 C          62.7930   84.6723   11.4105 C.ar    1  UNL1        0.0854
      8 C          63.3460   83.8033   10.3201 C.ar    1  UNL1        0.0193
      9 C          63.3869   82.3142   10.4958 C.ar    1  UNL1        0.0030
     10 C          62.8747   81.6941   11.7620 C.ar    1  UNL1        0.0177
     11 C          62.9156   80.2050   11.9377 C.ar    1  UNL1        0.0015
     12 C          62.4034   79.5849   13.2039 C.ar    1  UNL1        0.0001
     13 C          61.8504   80.4539   14.2943 C.ar    1  UNL1        0.0015
     14 C          61.8095   81.9430   14.1185 C.ar    1  UNL1        0.0191
     15 C          62.3217   82.5631   12.8524 C.ar    1  UNL1        0.0813
     16 N          62.2808   84.0522   12.6766 N.ar    1  UNL1       -0.2452
     17 N          63.7476   86.4696   13.6146 N.pl3   1  UNL1       -0.3172
     18 H          64.2152   85.6033   13.6026 H       1  UNL1        0.1482
     19 C          63.4100   88.9709   16.5634 C.3     1  UNL1        0.0604
     20 C          63.6906   88.6782   15.1193 C.3     1  UNL1        0.0271
     21 C          63.5535   87.1991   14.9108 C.3     1  UNL1        0.0998
     22 C          63.1881   86.5776   16.2262 C.3     1  UNL1        0.1549
     23 O          62.9528   85.1175   16.4763 O.3     1  UNL1       -0.3803
     24 C          63.0994   87.6726   17.2476 C.3     1  UNL1        0.1412
     25 O          62.7598   87.4996   18.6983 O.3     1  UNL1       -0.3818
     26 H          62.7309   84.9811   17.4107 H       1  UNL1        0.2105
     27 H          62.6030   86.5605   18.8840 H       1  UNL1        0.2104
     28 O          63.3849   91.5610   16.3629 O.3     1  UNL1       -0.3819
     29 C          63.4354   90.3241   17.2099 C.3     1  UNL1        0.1396
     30 H          63.4097   92.3450   16.9336 H       1  UNL1        0.2104
     31 N          62.6295   90.6288   10.7074 N.pl3   1  UNL1       -0.2823
     32 H          61.8733   91.0484   10.2370 H       1  UNL1        0.1551
     33 C          63.7409   91.4786   11.2483 C.ar    1  UNL1        0.0567
     34 C          64.5715   92.3097   10.3158 C.ar    1  UNL1        0.0356
     35 C          65.6829   93.1595   10.8567 C.ar    1  UNL1        0.1033
     36 N          65.9638   93.1782   12.3301 N.ar    1  UNL1       -0.2101
     37 C          65.1332   92.3472   13.2626 C.ar    1  UNL1        0.2260
     38 C          64.0218   91.4973   12.7216 C.ar    1  UNL1        0.0724
     39 O          65.4140   92.3659   14.7359 O.3     1  UNL1       -0.4640
     40 C          66.8130   92.5865   15.2300 C.3     1  UNL1        0.1678
     41 C          67.8991   93.5165   15.6832 C.3     1  UNL1        0.0473
     42 C          68.1500   92.0385   15.6326 C.3     1  UNL1        0.0473
@<TRIPOS>BOND
     1    28    29    1
     2    19    29    1
     3    19    20    1
     4    20    21    1
     5    21    17    1
     6    17     1    1
     7     1     2   ar
     8     2     3   ar
     9     3    31    1
    10    31    33    1
    11    33    34   ar
    12    34    35   ar
    13    35    36   ar
    14    36    37   ar
    15    37    39    1
    16    39    40    1
    17    40    41    1
    18    41    42    1
    19    37    38   ar
    20     3     4   ar
    21     4     5   ar
    22     5     6   ar
    23     6     7    1
    24     7     8   ar
    25     8     9   ar
    26     9    10   ar
    27    10    11   ar
    28    11    12   ar
    29    12    13   ar
    30    13    14   ar
    31    14    15   ar
    32    15    16   ar
    33    21    22    1
    34    22    23    1
    35    22    24    1
    36    24    25    1
    37    24    19    1
    38     6     1   ar
    39    16     7   ar
    40    38    33   ar
    41    15    10   ar
    42    42    40    1
    43    28    30    1
    44    17    18    1
    45    31    32    1
    46    23    26    1
    47    25    27    1
@<TRIPOS>MOLECULE
*****
 42 47 0 0 0
SMALL
GASTEIGER

@<TRIPOS>ATOM
      1 C          63.2251   86.6562   12.3038 C.ar    1  UNL1        0.1343
      2 N          63.1545   88.1483   12.1670 N.ar    1  UNL1       -0.1988
      3 C          62.5579   88.7611   10.9347 C.ar    1  UNL1        0.2218
      4 N          62.0319   87.8818    9.8392 N.ar    1  UNL1       -0.2119
      5 C          62.1025   86.3897    9.9760 C.ar    1  UNL1        0.1061
      6 C          62.6991   85.7770   11.2082 C.ar    1  UNL1        0.0683
      7 C          62.7697   84.2848   11.3450 C.ar    1  UNL1        0.0854
      8 C          63.3977   83.4611   10.2601 C.ar    1  UNL1        0.0193
      9 C          63.4684   81.9691   10.3969 C.ar    1  UNL1        0.0030
     10 C          62.9109   81.3006   11.6186 C.ar    1  UNL1        0.0177
     11 C          62.9815   79.8086   11.7553 C.ar    1  UNL1        0.0015
     12 C          62.4241   79.1402   12.9770 C.ar    1  UNL1        0.0001
     13 C          61.7960   79.9639   14.0619 C.ar    1  UNL1        0.0015
     14 C          61.7254   81.4560   13.9252 C.ar    1  UNL1        0.0191
     15 C          62.2828   82.1243   12.7035 C.ar    1  UNL1        0.0813
     16 N          62.2122   83.6165   12.5667 N.ar    1  UNL1       -0.2452
     17 N          63.8216   86.0434   13.5361 N.pl3   1  UNL1       -0.3172
     18 H          64.4016   85.2514   13.4607 H       1  UNL1        0.1482
     19 C          63.2855   88.2286   16.6989 C.3     1  UNL1        0.0604
     20 C          63.6777   88.0825   15.2585 C.3     1  UNL1        0.0271
     21 C          63.5346   86.6372   14.8833 C.3     1  UNL1        0.0998
     22 C          63.0539   85.8901   16.0919 C.3     1  UNL1        0.1549
     23 O          62.7760   84.4179   16.1656 O.3     1  UNL1       -0.3803
     24 C          62.9000   86.8736   17.2140 C.3     1  UNL1        0.1412
     25 O          62.4412   86.5575   18.6067 O.3     1  UNL1       -0.3818
     26 H          62.4770   84.1896   17.0597 H       1  UNL1        0.2105
     27 H          62.2550   85.6082   18.6782 H       1  UNL1        0.2104
     28 O          63.3313   90.8251   16.7748 O.3     1  UNL1       -0.3819
     29 C          63.2799   89.5054   17.4860 C.3     1  UNL1        0.1396
     30 H          63.3203   91.5440   17.4259 H       1  UNL1        0.2104
     31 N          62.4873   90.2532   10.7979 N.pl3   1  UNL1       -0.2823
     32 H          61.7663   90.6655   10.2693 H       1  UNL1        0.1551
     33 C          63.5153   91.1171   11.4666 C.ar    1  UNL1        0.0567
     34 C          63.7014   91.0471   12.9534 C.ar    1  UNL1        0.0356
     35 C          64.7293   91.9110   13.6220 C.ar    1  UNL1        0.1033
     36 N          65.5711   92.8449   12.8038 N.ar    1  UNL1       -0.2101
     37 C          65.3849   92.9148   11.3171 C.ar    1  UNL1        0.2260
     38 C          64.3570   92.0509   10.6485 C.ar    1  UNL1        0.0724
     39 O          66.2267   93.8487   10.4990 O.3     1  UNL1       -0.4640
     40 C          67.3898   93.3178    9.7146 C.3     1  UNL1        0.1678
     41 C          68.4548   92.2813    9.5113 C.3     1  UNL1        0.0473
     42 C          68.3392   93.4347    8.5592 C.3     1  UNL1        0.0473
@<TRIPOS>BOND
     1    28    29    1
     2    19    29    1
     3    19    20    1
     4    20    21    1
     5    21    17    1
     6    17     1    1
     7     1     2   ar
     8     2     3   ar
     9     3    31    1
    10    31    33    1
    11    33    34   ar
    12    34    35   ar
    13    35    36   ar
    14    36    37   ar
    15    37    39    1
    16    39    40    1
    17    40    41    1
    18    41    42    1
    19    37    38   ar
    20     3     4   ar
    21     4     5   ar
    22     5     6   ar
    23     6     7    1
    24     7     8   ar
    25     8     9   ar
    26     9    10   ar
    27    10    11   ar
    28    11    12   ar
    29    12    13   ar
    30    13    14   ar
    31    14    15   ar
    32    15    16   ar
    33    21    22    1
    34    22    23    1
    35    22    24    1
    36    24    25    1
    37    24    19    1
    38     6     1   ar
    39    16     7   ar
    40    38    33   ar
    41    15    10   ar
    42    42    40    1
    43    28    30    1
    44    17    18    1
    45    31    32    1
    46    23    26    1
    47    25    27    1
@<TRIPOS>MOLECULE
*****
 42 47 0 0 0
SMALL
GASTEIGER

@<TRIPOS>ATOM
      1 C          63.1752   86.9683   12.9571 C.ar    1  UNL1        0.1343
      2 N          63.3930   88.4075   13.3192 N.ar    1  UNL1       -0.1988
      3 C          63.8125   88.7753   14.7115 C.ar    1  UNL1        0.2218
      4 N          64.0143   87.7040   15.7418 N.ar    1  UNL1       -0.2119
      5 C          63.7966   86.2647   15.3797 C.ar    1  UNL1        0.1061
      6 C          63.3770   85.8969   13.9874 C.ar    1  UNL1        0.0683
      7 C          63.1592   84.4576   13.6252 C.ar    1  UNL1        0.0854
      8 C          62.6318   83.4979   14.6503 C.ar    1  UNL1        0.0193
      9 C          62.4140   82.0586   14.2882 C.ar    1  UNL1        0.0030
     10 C          62.7235   81.5791   12.9010 C.ar    1  UNL1        0.0177
     11 C          62.5057   80.1399   12.5389 C.ar    1  UNL1        0.0015
     12 C          62.8153   79.6604   11.1518 C.ar    1  UNL1        0.0001
     13 C          63.3427   80.6201   10.1267 C.ar    1  UNL1        0.0015
     14 C          63.5605   82.0593   10.4888 C.ar    1  UNL1        0.0191
     15 C          63.2510   82.5388   11.8759 C.ar    1  UNL1        0.0813
     16 N          63.4688   83.9781   12.2381 N.ar    1  UNL1       -0.2452
     17 N          62.7556   86.6004   11.5647 N.pl3   1  UNL1       -0.3172
     18 H          63.0761   85.7625   11.1592 H       1  UNL1        0.1482
     19 C          60.4913   88.4459    9.0088 C.3     1  UNL1        0.0604
     20 C          61.3801   87.2963    9.3810 C.3     1  UNL1        0.0271
     21 C          61.8476   87.5091   10.7903 C.3     1  UNL1        0.0998
     22 C          61.2478   88.7903   11.2891 C.3     1  UNL1        0.1549
     23 O          61.4505   89.3876   12.6500 O.3     1  UNL1       -0.3803
     24 C          60.4095   89.3692   10.1881 C.3     1  UNL1        0.1412
     25 O          59.6269   90.6471   10.2548 O.3     1  UNL1       -0.3818
     26 H          60.9524   90.2173   12.7165 H       1  UNL1        0.2105
     27 H          59.7432   91.0524   11.1284 H       1  UNL1        0.2104
     28 O          59.7221   90.0062    7.0792 O.3     1  UNL1       -0.3819
     29 C          59.8048   88.6383    7.6891 C.3     1  UNL1        0.1396
     30 H          59.2501   89.9551    6.2333 H       1  UNL1        0.2104
     31 N          64.0303   90.2146   15.0737 N.pl3   1  UNL1       -0.2823
     32 H          63.7396   90.5506   15.9522 H       1  UNL1        0.1551
     33 C          64.6912   91.1420   14.0972 C.ar    1  UNL1        0.0567
     34 C          64.2810   91.1282   12.6544 C.ar    1  UNL1        0.0356
     35 C          64.9418   92.0555   11.6780 C.ar    1  UNL1        0.1033
     36 N          66.0128   92.9966   12.1444 N.ar    1  UNL1       -0.2101
     37 C          66.4230   93.0103   13.5871 C.ar    1  UNL1        0.2260
     38 C          65.7621   92.0830   14.5635 C.ar    1  UNL1        0.0724
     39 O          67.4939   93.9513   14.0534 O.3     1  UNL1       -0.4640
     40 C          68.4072   93.5519   15.1743 C.3     1  UNL1        0.1678
     41 C          68.7598   92.6154   16.2918 C.3     1  UNL1        0.0473
     42 C          69.6365   93.7966   15.9982 C.3     1  UNL1        0.0473
@<TRIPOS>BOND
     1    28    29    1
     2    19    29    1
     3    19    20    1
     4    20    21    1
     5    21    17    1
     6    17     1    1
     7     1     2   ar
     8     2     3   ar
     9     3    31    1
    10    31    33    1
    11    33    34   ar
    12    34    35   ar
    13    35    36   ar
    14    36    37   ar
    15    37    39    1
    16    39    40    1
    17    40    41    1
    18    41    42    1
    19    37    38   ar
    20     3     4   ar
    21     4     5   ar
    22     5     6   ar
    23     6     7    1
    24     7     8   ar
    25     8     9   ar
    26     9    10   ar
    27    10    11   ar
    28    11    12   ar
    29    12    13   ar
    30    13    14   ar
    31    14    15   ar
    32    15    16   ar
    33    21    22    1
    34    22    23    1
    35    22    24    1
    36    24    25    1
    37    24    19    1
    38     6     1   ar
    39    16     7   ar
    40    38    33   ar
    41    15    10   ar
    42    42    40    1
    43    28    30    1
    44    17    18    1
    45    31    32    1
    46    23    26    1
    47    25    27    1
