@<TRIPOS>MOLECULE
*****
 36 39 0 0 0
SMALL
GASTEIGER

@<TRIPOS>ATOM
      1 C          64.1827   85.6213   14.9335 C.ar    1  UNL1        0.1103
      2 N          65.5796   85.3535   14.4569 N.ar    1  UNL1       -0.0807
      3 O          65.5561   84.1000   13.6336 O.2     1  UNL1       -0.3532
      4 C          64.1448   83.5929   13.6013 C.ar    1  UNL1        0.1823
      5 C          63.2960   84.5332   14.4046 C.ar    1  UNL1        0.0884
      6 BR         61.8196   84.4074   14.6382 Br      1  UNL1       -0.0444
      7 C          63.8099   88.1730   15.2493 C.3     1  UNL1        0.1194
      8 C          63.3759   89.3264   16.1044 C.3     1  UNL1        0.0489
      9 C          62.8808   89.0815   17.4990 C.3     1  UNL1        0.0714
     10 N          62.8196   87.6832   18.0384 N.3     1  UNL1       -0.2970
     11 C          63.2536   86.5298   17.1833 C.3     1  UNL1        0.0774
     12 C          63.7487   86.7747   15.7887 C.3     1  UNL1        0.0886
     13 H          61.8482   87.5093   18.2964 H       1  UNL1        0.1233
     14 C          64.0509   89.3076   14.2981 C.ar    1  UNL1        0.0048
     15 C          65.2930   90.1394   14.4221 C.ar    1  UNL1        0.0004
     16 C          65.5339   91.2739   13.4710 C.ar    1  UNL1        0.0317
     17 C          64.5327   91.5767   12.3958 C.ar    1  UNL1        0.1674
     18 F          64.7737   92.7113   11.4446 F       1  UNL1       -0.2018
     19 C          63.2906   90.7450   12.2718 C.ar    1  UNL1        0.1671
     20 F          62.2895   91.0478   11.1966 F       1  UNL1       -0.2018
     21 C          63.0497   89.6105   13.2229 C.ar    1  UNL1        0.0299
     22 C          63.5291   87.3691   12.7947 C.3     1  UNL1        0.1744
     23 O          64.3276   87.4136   14.0638 O.3     1  UNL1       -0.3514
     24 C          63.6662   82.3618   12.8904 C.ar    1  UNL1        0.0338
     25 C          63.1201   81.2066   13.6760 C.ar    1  UNL1        0.0028
     26 C          62.6416   79.9755   12.9652 C.ar    1  UNL1        0.0001
     27 C          62.7091   79.8996   11.4686 C.ar    1  UNL1       -0.0003
     28 C          63.2552   81.0549   10.6829 C.ar    1  UNL1       -0.0041
     29 C          63.7338   82.2859   11.3938 C.ar    1  UNL1       -0.0174
     30 C          64.2799   83.4412   10.6081 C.3     1  UNL1        0.0477
     31 C          63.3764   84.2286    9.7061 C.3     1  UNL1        0.0941
     32 N          62.4590   85.2656   10.2832 N.am    1  UNL1       -0.3040
     33 C          61.5823   86.0789    9.3776 C.2     1  UNL1        0.2230
     34 C          60.6649   87.1159    9.9545 C.3     1  UNL1        0.0946
     35 O          61.6231   85.8550    7.8949 O.2     1  UNL1       -0.2751
     36 H          62.4322   85.4125   11.2563 H       1  UNL1        0.1494
@<TRIPOS>BOND
     1    22    23    1
     2     7    23    1
     3     7    14    1
     4    14    15   ar
     5    15    16   ar
     6    16    17   ar
     7    17    18    1
     8    17    19   ar
     9    19    20    1
    10    19    21   ar
    11     7     8    1
    12     8     9    1
    13     9    10    1
    14    10    11    1
    15    11    12    1
    16    12     1    1
    17     1     2   ar
    18     2     3   ar
    19     3     4   ar
    20     4    24    1
    21    24    25   ar
    22    25    26   ar
    23    26    27   ar
    24    27    28   ar
    25    28    29   ar
    26    29    30    1
    27    30    31    1
    28    31    32    1
    29    32    33   am
    30    33    34    1
    31    33    35    2
    32     4     5   ar
    33     5     6    1
    34    12     7    1
    35     5     1   ar
    36    21    14   ar
    37    29    24   ar
    38    10    13    1
    39    32    36    1
@<TRIPOS>MOLECULE
*****
 36 39 0 0 0
SMALL
GASTEIGER

@<TRIPOS>ATOM
      1 C          62.8502   90.7200   11.6891 C.ar    1  UNL1        0.1103
      2 N          63.6501   91.3039   10.5625 N.ar    1  UNL1       -0.0807
      3 O          64.8989   91.9001   11.1411 O.2     1  UNL1       -0.3532
      4 C          64.8710   91.6848   12.6253 C.ar    1  UNL1        0.1823
      5 C          63.6047   90.9554   12.9640 C.ar    1  UNL1        0.0884
      6 BR         63.1694   90.5352   14.3365 Br      1  UNL1       -0.0444
      7 C          61.4790   88.5643   11.2171 C.3     1  UNL1        0.1194
      8 C          60.1568   87.8674   11.0910 C.3     1  UNL1        0.0489
      9 C          58.8835   88.6291   11.3109 C.3     1  UNL1        0.0714
     10 N          58.9324   90.0879   11.6568 N.3     1  UNL1       -0.2970
     11 C          60.2546   90.7848   11.7829 C.3     1  UNL1        0.0774
     12 C          61.5279   90.0231   11.5630 C.3     1  UNL1        0.0886
     13 H          58.4569   90.1941   12.5530 H       1  UNL1        0.1233
     14 C          61.9456   87.1807   10.8734 C.ar    1  UNL1        0.0048
     15 C          62.0033   86.1233   11.9357 C.ar    1  UNL1        0.0004
     16 C          62.4699   84.7398   11.5920 C.ar    1  UNL1        0.0317
     17 C          62.8788   84.4137   10.1861 C.ar    1  UNL1        0.1674
     18 F          63.3454   83.0301    9.8425 F       1  UNL1       -0.2018
     19 C          62.8211   85.4712    9.1239 C.ar    1  UNL1        0.1671
     20 F          63.2301   85.1452    7.7180 F       1  UNL1       -0.2018
     21 C          62.3545   86.8547    9.4676 C.ar    1  UNL1        0.0299
     22 C          63.8026   88.1891   12.3172 C.3     1  UNL1        0.1744
     23 O          62.9633   88.7808   11.2238 O.3     1  UNL1       -0.3514
     24 C          65.9242   92.1219   13.5998 C.ar    1  UNL1        0.0338
     25 C          66.4304   91.1639   14.6370 C.ar    1  UNL1        0.0028
     26 C          67.4836   91.6011   15.6114 C.ar    1  UNL1        0.0001
     27 C          68.0307   92.9964   15.5486 C.ar    1  UNL1       -0.0003
     28 C          67.5245   93.9545   14.5113 C.ar    1  UNL1       -0.0041
     29 C          66.4712   93.5172   13.5369 C.ar    1  UNL1       -0.0174
     30 C          65.9650   94.4753   12.4996 C.3     1  UNL1        0.0477
     31 C          66.6674   94.5912   11.1794 C.3     1  UNL1        0.0941
     32 N          67.4901   93.4473   10.6646 N.am    1  UNL1       -0.3040
     33 C          67.9340   93.4277    9.2320 C.2     1  UNL1        0.2230
     34 C          68.7566   92.2840    8.7172 C.3     1  UNL1        0.0946
     35 O          67.5553   94.5520    8.3140 O.2     1  UNL1       -0.2751
     36 H          67.7387   92.7094   11.2671 H       1  UNL1        0.1494
@<TRIPOS>BOND
     1    22    23    1
     2     7    23    1
     3     7    14    1
     4    14    15   ar
     5    15    16   ar
     6    16    17   ar
     7    17    18    1
     8    17    19   ar
     9    19    20    1
    10    19    21   ar
    11     7     8    1
    12     8     9    1
    13     9    10    1
    14    10    11    1
    15    11    12    1
    16    12     1    1
    17     1     2   ar
    18     2     3   ar
    19     3     4   ar
    20     4    24    1
    21    24    25   ar
    22    25    26   ar
    23    26    27   ar
    24    27    28   ar
    25    28    29   ar
    26    29    30    1
    27    30    31    1
    28    31    32    1
    29    32    33   am
    30    33    34    1
    31    33    35    2
    32     4     5   ar
    33     5     6    1
    34    12     7    1
    35     5     1   ar
    36    21    14   ar
    37    29    24   ar
    38    10    13    1
    39    32    36    1
@<TRIPOS>MOLECULE
*****
 36 39 0 0 0
SMALL
GASTEIGER

@<TRIPOS>ATOM
      1 C          63.8660   90.0615   13.2727 C.ar    1  UNL1        0.1103
      2 N          62.8290   90.2432   12.2042 N.ar    1  UNL1       -0.0807
      3 O          62.3520   88.8843   11.7854 O.2     1  UNL1       -0.3532
      4 C          63.0941   87.8625   12.5949 C.ar    1  UNL1        0.1823
      5 C          64.0298   88.5901   13.5142 C.ar    1  UNL1        0.0884
      6 BR         64.9651   87.9574   14.5015 Br      1  UNL1       -0.0444
      7 C          65.4597   92.1116   13.1906 C.3     1  UNL1        0.1194
      8 C          66.2026   93.2085   13.8941 C.3     1  UNL1        0.0489
      9 C          66.0945   93.3522   15.3833 C.3     1  UNL1        0.0714
     10 N          65.2436   92.3989   16.1690 N.3     1  UNL1       -0.2970
     11 C          64.5008   91.3020   15.4655 C.3     1  UNL1        0.0774
     12 C          64.6088   91.1583   13.9763 C.3     1  UNL1        0.0886
     13 H          64.5462   92.9606   16.6574 H       1  UNL1        0.1233
     14 C          66.1339   92.7625   12.0193 C.ar    1  UNL1        0.0048
     15 C          65.8272   94.1899   11.6754 C.ar    1  UNL1        0.0004
     16 C          66.5014   94.8406   10.5041 C.ar    1  UNL1        0.0317
     17 C          67.4823   94.0639    9.6767 C.ar    1  UNL1        0.1674
     18 F          68.1566   94.7148    8.5054 F       1  UNL1       -0.2018
     19 C          67.7891   92.6365   10.0207 C.ar    1  UNL1        0.1671
     20 F          68.7701   91.8598    9.1933 F       1  UNL1       -0.2018
     21 C          67.1149   91.9858   11.1920 C.ar    1  UNL1        0.0299
     22 C          64.3017   91.8604   10.8785 C.3     1  UNL1        0.1744
     23 O          64.9510   91.2407   12.0803 O.3     1  UNL1       -0.3514
     24 C          62.9294   86.3745   12.5016 C.ar    1  UNL1        0.0338
     25 C          63.1861   85.5146   13.7035 C.ar    1  UNL1        0.0028
     26 C          63.0214   84.0267   13.6102 C.ar    1  UNL1        0.0001
     27 C          62.5999   83.3985   12.3149 C.ar    1  UNL1       -0.0003
     28 C          62.3432   84.2584   11.1129 C.ar    1  UNL1       -0.0041
     29 C          62.5079   85.7464   11.2062 C.ar    1  UNL1       -0.0174
     30 C          62.2512   86.6063   10.0042 C.3     1  UNL1        0.0477
     31 C          60.8432   86.9238    9.5962 C.3     1  UNL1        0.0941
     32 N          60.5690   88.0889    8.6921 N.am    1  UNL1       -0.3040
     33 C          59.4072   88.0456    7.7443 C.2     1  UNL1        0.2230
     34 C          59.1329   89.2105    6.8402 C.3     1  UNL1        0.0946
     35 O          58.5196   86.8371    7.7006 O.2     1  UNL1       -0.2751
     36 H          61.1515   88.8820    8.7208 H       1  UNL1        0.1494
@<TRIPOS>BOND
     1    22    23    1
     2     7    23    1
     3     7    14    1
     4    14    15   ar
     5    15    16   ar
     6    16    17   ar
     7    17    18    1
     8    17    19   ar
     9    19    20    1
    10    19    21   ar
    11     7     8    1
    12     8     9    1
    13     9    10    1
    14    10    11    1
    15    11    12    1
    16    12     1    1
    17     1     2   ar
    18     2     3   ar
    19     3     4   ar
    20     4    24    1
    21    24    25   ar
    22    25    26   ar
    23    26    27   ar
    24    27    28   ar
    25    28    29   ar
    26    29    30    1
    27    30    31    1
    28    31    32    1
    29    32    33   am
    30    33    34    1
    31    33    35    2
    32     4     5   ar
    33     5     6    1
    34    12     7    1
    35     5     1   ar
    36    21    14   ar
    37    29    24   ar
    38    10    13    1
    39    32    36    1
@<TRIPOS>MOLECULE
*****
 36 39 0 0 0
SMALL
GASTEIGER

@<TRIPOS>ATOM
      1 C          60.7214   95.1872   -1.4809 C.ar    1  UNL1        0.1103
      2 N          59.3517   95.6996   -1.1471 N.ar    1  UNL1       -0.0807
      3 O          58.4236   95.2969   -2.2544 O.2     1  UNL1       -0.3532
      4 C          59.2195   94.5356   -3.2727 C.ar    1  UNL1        0.1823
      5 C          60.6397   94.4678   -2.7947 C.ar    1  UNL1        0.0884
      6 BR         61.7783   93.7982   -3.5055 Br      1  UNL1       -0.0444
      7 C          62.1224   94.5804    0.6212 C.3     1  UNL1        0.1194
      8 C          63.3570   94.7563    1.4547 C.3     1  UNL1        0.0489
      9 C          64.4254   95.7151    1.0195 C.3     1  UNL1        0.0714
     10 N          64.2590   96.4979   -0.2492 N.3     1  UNL1       -0.2970
     11 C          63.0244   96.3220   -1.0827 C.3     1  UNL1        0.0774
     12 C          61.9561   95.3632   -0.6475 C.3     1  UNL1        0.0886
     13 H          65.0527   96.2641   -0.8457 H       1  UNL1        0.1233
     14 C          61.8239   93.6207    1.7348 C.ar    1  UNL1        0.0048
     15 C          60.5055   93.6852    2.4472 C.ar    1  UNL1        0.0004
     16 C          60.2070   92.7255    3.5607 C.ar    1  UNL1        0.0317
     17 C          61.2269   91.7013    3.9617 C.ar    1  UNL1        0.1674
     18 F          60.9284   90.7416    5.0753 F       1  UNL1       -0.2018
     19 C          62.5453   91.6368    3.2493 C.ar    1  UNL1        0.1671
     20 F          63.5652   90.6126    3.6503 F       1  UNL1       -0.2018
     21 C          62.8438   92.5965    2.1358 C.ar    1  UNL1        0.0299
     22 C          60.5957   92.6116   -0.1156 C.3     1  UNL1        0.1744
     23 O          60.7841   94.0711    0.1744 O.3     1  UNL1       -0.3514
     24 C          58.6886   93.9457   -4.5455 C.ar    1  UNL1        0.0338
     25 C          59.0594   94.5534   -5.8658 C.ar    1  UNL1        0.0028
     26 C          58.5285   93.9636   -7.1386 C.ar    1  UNL1        0.0001
     27 C          57.6266   92.7658   -7.0912 C.ar    1  UNL1       -0.0003
     28 C          57.2558   92.1581   -5.7709 C.ar    1  UNL1       -0.0041
     29 C          57.7867   92.7480   -4.4981 C.ar    1  UNL1       -0.0174
     30 C          57.4159   92.1403   -3.1778 C.3     1  UNL1        0.0477
     31 C          56.0475   92.3657   -2.6064 C.3     1  UNL1        0.0941
     32 N          55.7793   93.5716   -1.7555 N.am    1  UNL1       -0.3040
     33 C          55.2921   94.8419   -2.3871 C.2     1  UNL1        0.2230
     34 C          55.0239   96.0477   -1.5363 C.3     1  UNL1        0.0946
     35 O          55.0729   94.9062   -3.8696 O.2     1  UNL1       -0.2751
     36 H          55.9232   93.5293   -0.7824 H       1  UNL1        0.1494
@<TRIPOS>BOND
     1    22    23    1
     2     7    23    1
     3     7    14    1
     4    14    15   ar
     5    15    16   ar
     6    16    17   ar
     7    17    18    1
     8    17    19   ar
     9    19    20    1
    10    19    21   ar
    11     7     8    1
    12     8     9    1
    13     9    10    1
    14    10    11    1
    15    11    12    1
    16    12     1    1
    17     1     2   ar
    18     2     3   ar
    19     3     4   ar
    20     4    24    1
    21    24    25   ar
    22    25    26   ar
    23    26    27   ar
    24    27    28   ar
    25    28    29   ar
    26    29    30    1
    27    30    31    1
    28    31    32    1
    29    32    33   am
    30    33    34    1
    31    33    35    2
    32     4     5   ar
    33     5     6    1
    34    12     7    1
    35     5     1   ar
    36    21    14   ar
    37    29    24   ar
    38    10    13    1
    39    32    36    1
@<TRIPOS>MOLECULE
*****
 36 39 0 0 0
SMALL
GASTEIGER

@<TRIPOS>ATOM
      1 C          61.8012   89.4243   11.3135 C.ar    1  UNL1        0.1103
      2 N          61.3796   89.3767   12.7523 N.ar    1  UNL1       -0.0807
      3 O          62.3401   90.2131   13.5445 O.2     1  UNL1       -0.3532
      4 C          63.3552   90.7778   12.5956 C.ar    1  UNL1        0.1823
      5 C          63.0222   90.2903   11.2166 C.ar    1  UNL1        0.0884
      6 BR         63.7775   90.6121    9.9613 Br      1  UNL1       -0.0444
      7 C          61.4953   87.3181    9.8235 C.3     1  UNL1        0.1194
      8 C          60.8154   86.6220    8.6819 C.3     1  UNL1        0.0489
      9 C          59.7613   87.3361    7.8888 C.3     1  UNL1        0.0714
     10 N          59.3872   88.7463    8.2373 N.3     1  UNL1       -0.2970
     11 C          60.0671   89.4424    9.3788 C.3     1  UNL1        0.0774
     12 C          61.1212   88.7283   10.1719 C.3     1  UNL1        0.0886
     13 H          58.3890   88.7429    8.4471 H       1  UNL1        0.1233
     14 C          62.1893   85.9894    9.8781 C.ar    1  UNL1        0.0048
     15 C          63.1368   85.5926    8.7850 C.ar    1  UNL1        0.0004
     16 C          63.8308   84.2640    8.8397 C.ar    1  UNL1        0.0317
     17 C          63.5772   83.3320    9.9874 C.ar    1  UNL1        0.1674
     18 F          64.2712   82.0033   10.0420 F       1  UNL1       -0.2018
     19 C          62.6297   83.7288   11.0804 C.ar    1  UNL1        0.1671
     20 F          62.3761   82.7968   12.2281 F       1  UNL1       -0.2018
     21 C          61.9357   85.0574   11.0258 C.ar    1  UNL1        0.0299
     22 C          62.4466   86.5806   12.1259 C.3     1  UNL1        0.1744
     23 O          62.4163   87.5528   10.9840 O.3     1  UNL1       -0.3514
     24 C          64.5021   91.6728   12.9612 C.ar    1  UNL1        0.0338
     25 C          64.9476   92.7463   12.0130 C.ar    1  UNL1        0.0028
     26 C          66.0944   93.6412   12.3786 C.ar    1  UNL1        0.0001
     27 C          66.7959   93.4627   13.6925 C.ar    1  UNL1       -0.0003
     28 C          66.3503   92.3892   14.6408 C.ar    1  UNL1       -0.0041
     29 C          65.2035   91.4942   14.2750 C.ar    1  UNL1       -0.0174
     30 C          64.7579   90.4207   15.2233 C.3     1  UNL1        0.0477
     31 C          63.5974   90.6655   16.1415 C.3     1  UNL1        0.0941
     32 N          63.1939   89.6175   17.1361 N.am    1  UNL1       -0.3040
     33 C          63.1795   88.1715   16.7377 C.2     1  UNL1        0.2230
     34 C          62.7761   87.1235   17.7321 C.3     1  UNL1        0.0946
     35 O          63.5687   87.7734   15.3448 O.2     1  UNL1       -0.2751
     36 H          62.9385   89.8788   18.0502 H       1  UNL1        0.1494
@<TRIPOS>BOND
     1    22    23    1
     2     7    23    1
     3     7    14    1
     4    14    15   ar
     5    15    16   ar
     6    16    17   ar
     7    17    18    1
     8    17    19   ar
     9    19    20    1
    10    19    21   ar
    11     7     8    1
    12     8     9    1
    13     9    10    1
    14    10    11    1
    15    11    12    1
    16    12     1    1
    17     1     2   ar
    18     2     3   ar
    19     3     4   ar
    20     4    24    1
    21    24    25   ar
    22    25    26   ar
    23    26    27   ar
    24    27    28   ar
    25    28    29   ar
    26    29    30    1
    27    30    31    1
    28    31    32    1
    29    32    33   am
    30    33    34    1
    31    33    35    2
    32     4     5   ar
    33     5     6    1
    34    12     7    1
    35     5     1   ar
    36    21    14   ar
    37    29    24   ar
    38    10    13    1
    39    32    36    1
@<TRIPOS>MOLECULE
*****
 36 39 0 0 0
SMALL
GASTEIGER

@<TRIPOS>ATOM
      1 C          59.2388   94.8646   -0.6878 C.ar    1  UNL1        0.1103
      2 N          59.3720   96.0111    0.2702 N.ar    1  UNL1       -0.0807
      3 O          59.7814   95.4567    1.6024 O.2     1  UNL1       -0.3532
      4 C          59.9012   93.9676    1.4679 C.ar    1  UNL1        0.1823
      5 C          59.5659   93.6016    0.0525 C.ar    1  UNL1        0.0884
      6 BR         59.5588   92.2160   -0.5220 Br      1  UNL1       -0.0444
      7 C          59.8991   94.9033   -3.2003 C.3     1  UNL1        0.1194
      8 C          59.5077   95.0023   -4.6449 C.3     1  UNL1        0.0489
      9 C          58.0646   95.1615   -5.0218 C.3     1  UNL1        0.0714
     10 N          57.0129   95.2218   -3.9539 N.3     1  UNL1       -0.2970
     11 C          57.4042   95.1228   -2.5093 C.3     1  UNL1        0.0774
     12 C          58.8474   94.9636   -2.1324 C.3     1  UNL1        0.0886
     13 H          56.3639   94.4562   -4.1363 H       1  UNL1        0.1233
     14 C          61.2497   94.7957   -3.8440 C.ar    1  UNL1        0.0048
     15 C          61.7354   95.8842   -4.7547 C.ar    1  UNL1        0.0004
     16 C          63.0859   95.7765   -5.3984 C.ar    1  UNL1        0.0317
     17 C          63.9508   94.5804   -5.1314 C.ar    1  UNL1        0.1674
     18 F          65.3015   94.4728   -5.7751 F       1  UNL1       -0.2018
     19 C          63.4652   93.4920   -4.2207 C.ar    1  UNL1        0.1671
     20 F          64.3301   92.2959   -3.9536 F       1  UNL1       -0.2018
     21 C          62.1147   93.5997   -3.5770 C.ar    1  UNL1        0.0299
     22 C          61.8103   95.7958   -1.6834 C.3     1  UNL1        0.1744
     23 O          60.7596   94.7670   -1.9792 O.3     1  UNL1       -0.3514
     24 C          60.2883   93.0121    2.5576 C.ar    1  UNL1        0.0338
     25 C          59.2978   92.6494    3.6240 C.ar    1  UNL1        0.0028
     26 C          59.6849   91.6939    4.7135 C.ar    1  UNL1        0.0001
     27 C          61.0627   91.1011    4.7367 C.ar    1  UNL1       -0.0003
     28 C          62.0533   91.4639    3.6703 C.ar    1  UNL1       -0.0041
     29 C          61.6660   92.4194    2.5807 C.ar    1  UNL1       -0.0174
     30 C          62.6566   92.7821    1.5142 C.3     1  UNL1        0.0477
     31 C          64.0971   92.9993    1.8714 C.3     1  UNL1        0.0941
     32 N          64.4964   94.1961    2.6828 N.am    1  UNL1       -0.3040
     33 C          64.9004   95.4670    1.9961 C.2     1  UNL1        0.2230
     34 C          65.2997   96.6637    2.8075 C.3     1  UNL1        0.0946
     35 O          64.9052   95.5412    0.4979 O.2     1  UNL1       -0.2751
     36 H          64.4933   94.1474    3.6661 H       1  UNL1        0.1494
@<TRIPOS>BOND
     1    22    23    1
     2     7    23    1
     3     7    14    1
     4    14    15   ar
     5    15    16   ar
     6    16    17   ar
     7    17    18    1
     8    17    19   ar
     9    19    20    1
    10    19    21   ar
    11     7     8    1
    12     8     9    1
    13     9    10    1
    14    10    11    1
    15    11    12    1
    16    12     1    1
    17     1     2   ar
    18     2     3   ar
    19     3     4   ar
    20     4    24    1
    21    24    25   ar
    22    25    26   ar
    23    26    27   ar
    24    27    28   ar
    25    28    29   ar
    26    29    30    1
    27    30    31    1
    28    31    32    1
    29    32    33   am
    30    33    34    1
    31    33    35    2
    32     4     5   ar
    33     5     6    1
    34    12     7    1
    35     5     1   ar
    36    21    14   ar
    37    29    24   ar
    38    10    13    1
    39    32    36    1
@<TRIPOS>MOLECULE
*****
 36 39 0 0 0
SMALL
GASTEIGER

@<TRIPOS>ATOM
      1 C          60.1761   93.8954   -2.6444 C.ar    1  UNL1        0.1103
      2 N          59.5775   92.7436   -1.8927 N.ar    1  UNL1       -0.0807
      3 O          58.1129   93.0156   -1.7174 O.2     1  UNL1       -0.3532
      4 C          57.8061   94.3354   -2.3607 C.ar    1  UNL1        0.1823
      5 C          59.0813   94.8792   -2.9337 C.ar    1  UNL1        0.0884
      6 BR         59.2348   96.1787   -3.6671 Br      1  UNL1       -0.0444
      7 C          62.6542   94.3258   -1.9934 C.3     1  UNL1        0.1194
      8 C          64.0945   94.4689   -2.3867 C.3     1  UNL1        0.0489
      9 C          64.4973   94.3245   -3.8244 C.3     1  UNL1        0.0714
     10 N          63.4596   94.0371   -4.8688 N.3     1  UNL1       -0.2970
     11 C          62.0192   93.8941   -4.4755 C.3     1  UNL1        0.0774
     12 C          61.6165   94.0384   -3.0378 C.3     1  UNL1        0.0886
     13 H          63.7299   93.1630   -5.3197 H       1  UNL1        0.1233
     14 C          63.2653   94.5962   -0.6504 C.ar    1  UNL1        0.0048
     15 C          64.0535   95.8521   -0.4242 C.ar    1  UNL1        0.0004
     16 C          64.6646   96.1224    0.9187 C.ar    1  UNL1        0.0317
     17 C          64.4874   95.1367    2.0354 C.ar    1  UNL1        0.1674
     18 F          65.0985   95.4071    3.3784 F       1  UNL1       -0.2018
     19 C          63.6991   93.8808    1.8092 C.ar    1  UNL1        0.1671
     20 F          63.5220   92.8951    2.9259 F       1  UNL1       -0.2018
     21 C          63.0881   93.6105    0.4663 C.ar    1  UNL1        0.0299
     22 C          61.0191   95.4811   -0.3375 C.3     1  UNL1        0.1744
     23 O          61.4259   94.2767   -1.1337 O.3     1  UNL1       -0.3514
     24 C          56.4605   94.9956   -2.4206 C.ar    1  UNL1        0.0338
     25 C          55.9155   95.6986   -1.2129 C.ar    1  UNL1        0.0028
     26 C          54.5700   96.3587   -1.2728 C.ar    1  UNL1        0.0001
     27 C          53.7694   96.3160   -2.5406 C.ar    1  UNL1       -0.0003
     28 C          54.3144   95.6130   -3.7485 C.ar    1  UNL1       -0.0041
     29 C          55.6600   94.9529   -3.6884 C.ar    1  UNL1       -0.0174
     30 C          56.2050   94.2499   -4.8963 C.3     1  UNL1        0.0477
     31 C          56.0899   92.7589   -5.0118 C.3     1  UNL1        0.0941
     32 N          55.4726   92.1468   -6.2343 N.am    1  UNL1       -0.3040
     33 C          54.8862   90.7678   -6.1681 C.2     1  UNL1        0.2230
     34 C          54.2690   90.1557   -7.3905 C.3     1  UNL1        0.0946
     35 O          54.9171   90.0008   -4.8794 O.2     1  UNL1       -0.2751
     36 H          55.4524   92.6502   -7.0802 H       1  UNL1        0.1494
@<TRIPOS>BOND
     1    22    23    1
     2     7    23    1
     3     7    14    1
     4    14    15   ar
     5    15    16   ar
     6    16    17   ar
     7    17    18    1
     8    17    19   ar
     9    19    20    1
    10    19    21   ar
    11     7     8    1
    12     8     9    1
    13     9    10    1
    14    10    11    1
    15    11    12    1
    16    12     1    1
    17     1     2   ar
    18     2     3   ar
    19     3     4   ar
    20     4    24    1
    21    24    25   ar
    22    25    26   ar
    23    26    27   ar
    24    27    28   ar
    25    28    29   ar
    26    29    30    1
    27    30    31    1
    28    31    32    1
    29    32    33   am
    30    33    34    1
    31    33    35    2
    32     4     5   ar
    33     5     6    1
    34    12     7    1
    35     5     1   ar
    36    21    14   ar
    37    29    24   ar
    38    10    13    1
    39    32    36    1
@<TRIPOS>MOLECULE
*****
 36 39 0 0 0
SMALL
GASTEIGER

@<TRIPOS>ATOM
      1 C          63.2732   86.9769   12.5715 C.ar    1  UNL1        0.1103
      2 N          64.2138   86.6704   13.6990 N.ar    1  UNL1       -0.0807
      3 O          64.2920   85.1797   13.8451 O.2     1  UNL1       -0.3532
      4 C          63.3998   84.5647   12.8080 C.ar    1  UNL1        0.1823
      5 C          62.7701   85.6755   12.0208 C.ar    1  UNL1        0.0884
      6 BR         61.8065   85.5134   10.8827 Br      1  UNL1       -0.0444
      7 C          63.4452   89.5618   12.7680 C.3     1  UNL1        0.1194
      8 C          63.0730   90.9295   12.2774 C.3     1  UNL1        0.0489
      9 C          62.1567   91.0801   11.0994 C.3     1  UNL1        0.0714
     10 N          61.6125   89.8629   10.4121 N.3     1  UNL1       -0.2970
     11 C          61.9846   88.4952   10.9028 C.3     1  UNL1        0.0774
     12 C          62.9010   88.3446   12.0807 C.3     1  UNL1        0.0886
     13 H          61.9098   89.9172    9.4379 H       1  UNL1        0.1233
     14 C          64.2110   90.4058   13.7435 C.ar    1  UNL1        0.0048
     15 C          63.5809   90.8073   15.0441 C.ar    1  UNL1        0.0004
     16 C          64.3467   91.6513   16.0194 C.ar    1  UNL1        0.0317
     17 C          65.7426   92.0936   15.6941 C.ar    1  UNL1        0.1674
     18 F          66.5084   92.9375   16.6695 F       1  UNL1       -0.2018
     19 C          66.3727   91.6920   14.3935 C.ar    1  UNL1        0.1671
     20 F          67.7686   92.1343   14.0682 F       1  UNL1       -0.2018
     21 C          65.6069   90.8481   13.4181 C.ar    1  UNL1        0.0299
     22 C          63.9638   88.5231   15.0923 C.3     1  UNL1        0.1744
     23 O          64.0833   88.4871   13.5975 O.3     1  UNL1       -0.3514
     24 C          63.1764   83.0967   12.5952 C.ar    1  UNL1        0.0338
     25 C          63.2845   82.5135   11.2176 C.ar    1  UNL1        0.0028
     26 C          63.0611   81.0456   11.0048 C.ar    1  UNL1        0.0001
     27 C          62.7296   80.1608   12.1699 C.ar    1  UNL1       -0.0003
     28 C          62.6215   80.7441   13.5477 C.ar    1  UNL1       -0.0041
     29 C          62.8449   82.2120   13.7603 C.ar    1  UNL1       -0.0174
     30 C          62.7368   82.7953   15.1381 C.3     1  UNL1        0.0477
     31 C          62.3157   84.2237   15.3168 C.3     1  UNL1        0.0941
     32 N          62.9785   85.0764   16.3579 N.am    1  UNL1       -0.3040
     33 C          62.1760   86.0881   17.1209 C.2     1  UNL1        0.2230
     34 C          62.8387   86.9408   18.1619 C.3     1  UNL1        0.0946
     35 O          60.7106   86.2472   16.8429 O.2     1  UNL1       -0.2751
     36 H          63.9403   84.9719   16.5404 H       1  UNL1        0.1494
@<TRIPOS>BOND
     1    22    23    1
     2     7    23    1
     3     7    14    1
     4    14    15   ar
     5    15    16   ar
     6    16    17   ar
     7    17    18    1
     8    17    19   ar
     9    19    20    1
    10    19    21   ar
    11     7     8    1
    12     8     9    1
    13     9    10    1
    14    10    11    1
    15    11    12    1
    16    12     1    1
    17     1     2   ar
    18     2     3   ar
    19     3     4   ar
    20     4    24    1
    21    24    25   ar
    22    25    26   ar
    23    26    27   ar
    24    27    28   ar
    25    28    29   ar
    26    29    30    1
    27    30    31    1
    28    31    32    1
    29    32    33   am
    30    33    34    1
    31    33    35    2
    32     4     5   ar
    33     5     6    1
    34    12     7    1
    35     5     1   ar
    36    21    14   ar
    37    29    24   ar
    38    10    13    1
    39    32    36    1
@<TRIPOS>MOLECULE
*****
 36 39 0 0 0
SMALL
GASTEIGER

@<TRIPOS>ATOM
      1 C          62.5601   90.3229   11.7984 C.ar    1  UNL1        0.1103
      2 N          61.5404   91.1778   11.1061 N.ar    1  UNL1       -0.0807
      3 O          60.8329   90.3272   10.0934 O.2     1  UNL1       -0.3532
      4 C          61.4153   88.9465   10.1596 C.ar    1  UNL1        0.1823
      5 C          62.4827   88.9438   11.2134 C.ar    1  UNL1        0.0884
      6 BR         63.3251   87.7684   11.6122 Br      1  UNL1       -0.0444
      7 C          64.6739   91.6319   12.5520 C.3     1  UNL1        0.1194
      8 C          65.6071   92.0777   13.6384 C.3     1  UNL1        0.0489
      9 C          65.3598   91.6601   15.0578 C.3     1  UNL1        0.0714
     10 N          64.1791   90.7968   15.3906 N.3     1  UNL1       -0.2970
     11 C          63.2459   90.3511   14.3042 C.3     1  UNL1        0.0774
     12 C          63.4933   90.7686   12.8849 C.3     1  UNL1        0.0886
     13 H          63.6177   91.3139   16.0673 H       1  UNL1        0.1233
     14 C          65.6479   92.4376   11.7444 C.ar    1  UNL1        0.0048
     15 C          65.7117   93.9266   11.9138 C.ar    1  UNL1        0.0004
     16 C          66.6857   94.7322   11.1062 C.ar    1  UNL1        0.0317
     17 C          67.5959   94.0488   10.1292 C.ar    1  UNL1        0.1674
     18 F          68.5699   94.8545    9.3215 F       1  UNL1       -0.2018
     19 C          67.5321   92.5598    9.9598 C.ar    1  UNL1        0.1671
     20 F          68.4423   91.8764    8.9828 F       1  UNL1       -0.2018
     21 C          66.5581   91.7542   10.7674 C.ar    1  UNL1        0.0299
     22 C          64.0158   92.6352   10.2476 C.3     1  UNL1        0.1744
     23 O          64.0789   91.4660   11.1851 O.3     1  UNL1       -0.3514
     24 C          61.0027   87.7742    9.3196 C.ar    1  UNL1        0.0338
     25 C          61.5483   86.4091    9.6173 C.ar    1  UNL1        0.0028
     26 C          61.1357   85.2369    8.7774 C.ar    1  UNL1        0.0001
     27 C          60.1775   85.4298    7.6395 C.ar    1  UNL1       -0.0003
     28 C          59.6319   86.7950    7.3417 C.ar    1  UNL1       -0.0041
     29 C          60.0445   87.9672    8.1818 C.ar    1  UNL1       -0.0174
     30 C          59.4989   89.3324    7.8840 C.3     1  UNL1        0.0477
     31 C          58.9195   89.6301    6.5329 C.3     1  UNL1        0.0941
     32 N          59.6134   90.5922    5.6147 N.am    1  UNL1       -0.3040
     33 C          58.8226   91.6419    4.8917 C.2     1  UNL1        0.2230
     34 C          59.5163   92.6040    3.9736 C.3     1  UNL1        0.0946
     35 O          57.3379   91.7295    5.0868 O.2     1  UNL1       -0.2751
     36 H          60.5878   90.5347    5.4867 H       1  UNL1        0.1494
@<TRIPOS>BOND
     1    22    23    1
     2     7    23    1
     3     7    14    1
     4    14    15   ar
     5    15    16   ar
     6    16    17   ar
     7    17    18    1
     8    17    19   ar
     9    19    20    1
    10    19    21   ar
    11     7     8    1
    12     8     9    1
    13     9    10    1
    14    10    11    1
    15    11    12    1
    16    12     1    1
    17     1     2   ar
    18     2     3   ar
    19     3     4   ar
    20     4    24    1
    21    24    25   ar
    22    25    26   ar
    23    26    27   ar
    24    27    28   ar
    25    28    29   ar
    26    29    30    1
    27    30    31    1
    28    31    32    1
    29    32    33   am
    30    33    34    1
    31    33    35    2
    32     4     5   ar
    33     5     6    1
    34    12     7    1
    35     5     1   ar
    36    21    14   ar
    37    29    24   ar
    38    10    13    1
    39    32    36    1
