@<TRIPOS>MOLECULE
*****
 26 28 0 0 0
SMALL
GASTEIGER

@<TRIPOS>ATOM
      1 C          66.1042   92.8758   13.3059 C.ar    1  UNL1        0.1724
      2 C          65.3252   91.7090   13.8364 C.ar    1  UNL1        0.0416
      3 C          64.4025   90.9489   12.9304 C.ar    1  UNL1        0.0224
      4 C          63.6235   89.7820   13.4609 C.ar    1  UNL1        0.0986
      5 N          62.7008   89.0220   12.5549 N.ar    1  UNL1       -0.2455
      6 C          62.5571   89.4288   11.1183 C.ar    1  UNL1        0.0884
      7 C          63.3361   90.5957   10.5877 C.ar    1  UNL1        0.0175
      8 C          64.2588   91.3557   11.4938 C.ar    1  UNL1        0.0060
      9 C          65.0378   92.5226   10.9632 C.ar    1  UNL1        0.0401
     10 C          65.9605   93.2827   11.8692 C.ar    1  UNL1        0.1724
     11 C          61.6344   88.6687   10.2122 C.3     1  UNL1        0.1585
     12 O          62.8100   88.2029    9.4055 O.3     1  UNL1       -0.3755
     13 H          63.6261   88.5659    9.7840 H       1  UNL1        0.2112
     14 C          60.4587   89.1345   11.0189 C.ar    1  UNL1        0.1034
     15 C          59.8725   90.5152   11.0068 C.ar    1  UNL1        0.1405
     16 N          58.7142   90.5354   11.9598 N.ar    1  UNL1       -0.1276
     17 N          58.5845   89.1671   12.5608 N.ar    1  UNL1       -0.0674
     18 N          59.6626   88.3013   11.9793 N.ar    1  UNL1       -0.2579
     19 H          59.8201   87.3528   12.1908 H       1  UNL1        0.1904
     20 C          60.7116   87.9086    9.3062 C.3     1  UNL1        0.0355
     21 C          60.6728   86.4102    9.3612 C.3     1  UNL1        0.0032
     22 C          59.8277   88.6471    8.3452 C.3     1  UNL1        0.0032
     23 C          67.2683   93.1543   15.6118 C.3     1  UNL1        0.2526
     24 O          67.0269   93.6359   14.2119 O.3     1  UNL1       -0.4684
     25 O          66.7396   94.4496   11.3387 O.3     1  UNL1       -0.4684
     26 C          66.1129   95.8117   11.2940 C.3     1  UNL1        0.2526
@<TRIPOS>BOND
     1    23    24    1
     2    24     1    1
     3     1     2   ar
     4     2     3   ar
     5     3     4   ar
     6     4     5   ar
     7     5     6   ar
     8     6    11    1
     9    11    12    1
    10    11    14    1
    11    14    15   ar
    12    15    16   ar
    13    16    17   ar
    14    17    18   ar
    15    11    20    1
    16    20    21    1
    17    20    22    1
    18     6     7   ar
    19     7     8   ar
    20     8     9   ar
    21     9    10   ar
    22    10    25    1
    23    25    26    1
    24    10     1   ar
    25     8     3   ar
    26    18    14   ar
    27    12    13    1
    28    18    19    1
@<TRIPOS>MOLECULE
*****
 26 28 0 0 0
SMALL
GASTEIGER

@<TRIPOS>ATOM
      1 C          65.7933   92.3890   13.1726 C.ar    1  UNL1        0.1724
      2 C          64.7896   91.3792   13.6445 C.ar    1  UNL1        0.0416
      3 C          63.8020   90.7952   12.6781 C.ar    1  UNL1        0.0224
      4 C          62.7982   89.7854   13.1500 C.ar    1  UNL1        0.0986
      5 N          61.8107   89.2015   12.1836 N.ar    1  UNL1       -0.2455
      6 C          61.8269   89.6274   10.7455 C.ar    1  UNL1        0.0884
      7 C          62.8307   90.6373   10.2736 C.ar    1  UNL1        0.0175
      8 C          63.8182   91.2212   11.2400 C.ar    1  UNL1        0.0060
      9 C          64.8220   92.2311   10.7681 C.ar    1  UNL1        0.0401
     10 C          65.8096   92.8150   11.7345 C.ar    1  UNL1        0.1724
     11 C          60.8393   89.0435    9.7791 C.3     1  UNL1        0.1585
     12 O          60.3070   90.4164    9.4935 O.3     1  UNL1       -0.3755
     13 H          60.7943   91.0684   10.0211 H       1  UNL1        0.2112
     14 C          61.3717   87.6706   10.0648 C.ar    1  UNL1        0.1034
     15 C          62.3801   86.9267    9.2402 C.ar    1  UNL1        0.1405
     16 N          62.6208   85.5968    9.8910 N.ar    1  UNL1       -0.1276
     17 N          61.7612   85.5187   11.1178 N.ar    1  UNL1       -0.0674
     18 N          60.9892   86.8003   11.2252 N.ar    1  UNL1       -0.2579
     19 H          60.3447   87.0301   11.9330 H       1  UNL1        0.1904
     20 C          59.8518   88.4595    8.8129 C.3     1  UNL1        0.0355
     21 C          59.6702   89.0799    7.4593 C.3     1  UNL1        0.0032
     22 C          59.0458   87.2551    9.2002 C.3     1  UNL1        0.0032
     23 C          67.5835   92.0703   15.0284 C.3     1  UNL1        0.2526
     24 O          66.7809   92.9730   14.1390 O.3     1  UNL1       -0.4684
     25 O          66.8134   93.8248   11.2626 O.3     1  UNL1       -0.4684
     26 C          66.4119   95.2606   11.0974 C.3     1  UNL1        0.2526
@<TRIPOS>BOND
     1    23    24    1
     2    24     1    1
     3     1     2   ar
     4     2     3   ar
     5     3     4   ar
     6     4     5   ar
     7     5     6   ar
     8     6    11    1
     9    11    12    1
    10    11    14    1
    11    14    15   ar
    12    15    16   ar
    13    16    17   ar
    14    17    18   ar
    15    11    20    1
    16    20    21    1
    17    20    22    1
    18     6     7   ar
    19     7     8   ar
    20     8     9   ar
    21     9    10   ar
    22    10    25    1
    23    25    26    1
    24    10     1   ar
    25     8     3   ar
    26    18    14   ar
    27    12    13    1
    28    18    19    1
@<TRIPOS>MOLECULE
*****
 26 28 0 0 0
SMALL
GASTEIGER

@<TRIPOS>ATOM
      1 C          64.0626   89.7367   14.0284 C.ar    1  UNL1        0.1724
      2 C          64.9897   90.8625   14.3793 C.ar    1  UNL1        0.0416
      3 C          65.2789   91.9371   13.3735 C.ar    1  UNL1        0.0224
      4 C          66.2060   93.0629   13.7244 C.ar    1  UNL1        0.0986
      5 N          66.4952   94.1374   12.7186 N.ar    1  UNL1       -0.2455
      6 C          65.8573   94.0862   11.3619 C.ar    1  UNL1        0.0884
      7 C          64.9303   92.9604   11.0111 C.ar    1  UNL1        0.0175
      8 C          64.6411   91.8859   12.0168 C.ar    1  UNL1        0.0060
      9 C          63.7140   90.7600   11.6660 C.ar    1  UNL1        0.0401
     10 C          63.4248   89.6854   12.6718 C.ar    1  UNL1        0.1724
     11 C          66.1466   95.1608   10.3561 C.3     1  UNL1        0.1585
     12 O          65.1322   96.0490   11.0133 O.3     1  UNL1       -0.3755
     13 H          64.7371   95.5854   11.7682 H       1  UNL1        0.2112
     14 C          67.1610   94.2726    9.6989 C.ar    1  UNL1        0.1034
     15 C          67.4104   94.1597    8.2241 C.ar    1  UNL1        0.1405
     16 N          68.5078   93.1586    8.0148 N.ar    1  UNL1       -0.1276
     17 N          68.9365   92.6528    9.3604 N.ar    1  UNL1       -0.0674
     18 N          68.1042   93.3412   10.4012 N.ar    1  UNL1       -0.2579
     19 H          68.1661   93.2056   11.3743 H       1  UNL1        0.1904
     20 C          66.4359   96.2354    9.3504 C.3     1  UNL1        0.0355
     21 C          67.8006   96.8545    9.2858 C.3     1  UNL1        0.0032
     22 C          65.3604   96.6908    8.4090 C.3     1  UNL1        0.0032
     23 C          63.1755   89.0195   16.3627 C.3     1  UNL1        0.2526
     24 O          63.7734   88.6620   15.0343 O.3     1  UNL1       -0.4684
     25 O          62.4977   88.5596   12.3209 O.3     1  UNL1       -0.4684
     26 C          62.0224   88.3920   10.9081 C.3     1  UNL1        0.2526
@<TRIPOS>BOND
     1    23    24    1
     2    24     1    1
     3     1     2   ar
     4     2     3   ar
     5     3     4   ar
     6     4     5   ar
     7     5     6   ar
     8     6    11    1
     9    11    12    1
    10    11    14    1
    11    14    15   ar
    12    15    16   ar
    13    16    17   ar
    14    17    18   ar
    15    11    20    1
    16    20    21    1
    17    20    22    1
    18     6     7   ar
    19     7     8   ar
    20     8     9   ar
    21     9    10   ar
    22    10    25    1
    23    25    26    1
    24    10     1   ar
    25     8     3   ar
    26    18    14   ar
    27    12    13    1
    28    18    19    1
@<TRIPOS>MOLECULE
*****
 26 28 0 0 0
SMALL
GASTEIGER

@<TRIPOS>ATOM
      1 C          62.4205   89.5870   10.8718 C.ar    1  UNL1        0.1724
      2 C          63.1768   89.0569   12.0536 C.ar    1  UNL1        0.0416
      3 C          63.0612   87.6095   12.4303 C.ar    1  UNL1        0.0224
      4 C          63.8176   87.0793   13.6122 C.ar    1  UNL1        0.0986
      5 N          63.7019   85.6321   13.9888 N.ar    1  UNL1       -0.2455
      6 C          62.8298   84.7149   13.1836 C.ar    1  UNL1        0.0884
      7 C          62.0734   85.2451   12.0018 C.ar    1  UNL1        0.0175
      8 C          62.1891   86.6924   11.6252 C.ar    1  UNL1        0.0060
      9 C          61.4327   87.2226   10.4433 C.ar    1  UNL1        0.0401
     10 C          61.5484   88.6699   10.0666 C.ar    1  UNL1        0.1724
     11 C          62.7141   83.2675   13.5603 C.3     1  UNL1        0.1585
     12 O          62.0755   83.6569   14.8605 O.3     1  UNL1       -0.3755
     13 H          62.0083   84.6233   14.9111 H       1  UNL1        0.2112
     14 C          63.3527   82.8782   12.2602 C.ar    1  UNL1        0.1034
     15 C          62.7831   81.9297   11.2472 C.ar    1  UNL1        0.1405
     16 N          63.7515   81.8342   10.1056 N.ar    1  UNL1       -0.1276
     17 N          64.9196   82.7237   10.4130 N.ar    1  UNL1       -0.0674
     18 N          64.6732   83.3689   11.7446 N.ar    1  UNL1       -0.2579
     19 H          65.2728   84.0031   12.2001 H       1  UNL1        0.1904
     20 C          62.5984   81.8202   13.9370 C.3     1  UNL1        0.0355
     21 C          61.2509   81.2231   14.2155 C.3     1  UNL1        0.0032
     22 C          63.8304   80.9700   14.0351 C.3     1  UNL1        0.0032
     23 C          63.8785   91.7038   10.4929 C.3     1  UNL1        0.2526
     24 O          62.5361   91.0344   10.4951 O.3     1  UNL1       -0.4684
     25 O          60.7919   89.2001    8.8847 O.3     1  UNL1       -0.4684
     26 C          59.8025   88.3253    8.1737 C.3     1  UNL1        0.2526
@<TRIPOS>BOND
     1    23    24    1
     2    24     1    1
     3     1     2   ar
     4     2     3   ar
     5     3     4   ar
     6     4     5   ar
     7     5     6   ar
     8     6    11    1
     9    11    12    1
    10    11    14    1
    11    14    15   ar
    12    15    16   ar
    13    16    17   ar
    14    17    18   ar
    15    11    20    1
    16    20    21    1
    17    20    22    1
    18     6     7   ar
    19     7     8   ar
    20     8     9   ar
    21     9    10   ar
    22    10    25    1
    23    25    26    1
    24    10     1   ar
    25     8     3   ar
    26    18    14   ar
    27    12    13    1
    28    18    19    1
@<TRIPOS>MOLECULE
*****
 26 28 0 0 0
SMALL
GASTEIGER

@<TRIPOS>ATOM
      1 C          61.7807   88.0236   11.2863 C.ar    1  UNL1        0.1724
      2 C          62.6461   88.6119   12.3610 C.ar    1  UNL1        0.0416
      3 C          63.4058   89.8792   12.1023 C.ar    1  UNL1        0.0224
      4 C          64.2712   90.4676   13.1769 C.ar    1  UNL1        0.0986
      5 N          65.0308   91.7348   12.9182 N.ar    1  UNL1       -0.2455
      6 C          64.9251   92.4137   11.5848 C.ar    1  UNL1        0.0884
      7 C          64.0597   91.8253   10.5101 C.ar    1  UNL1        0.0175
      8 C          63.3001   90.5581   10.7689 C.ar    1  UNL1        0.0060
      9 C          62.4346   89.9697    9.6942 C.ar    1  UNL1        0.0401
     10 C          61.6750   88.7024    9.9529 C.ar    1  UNL1        0.1724
     11 C          65.6848   93.6810   11.3261 C.3     1  UNL1        0.1585
     12 O          64.7068   94.0475   10.2495 O.3     1  UNL1       -0.3755
     13 H          64.0328   93.3539   10.1751 H       1  UNL1        0.2112
     14 C          66.6628   93.3144   12.4026 C.ar    1  UNL1        0.1034
     15 C          66.6823   93.8608   13.7995 C.ar    1  UNL1        0.1405
     16 N          67.8247   93.2211   14.5316 N.ar    1  UNL1       -0.1276
     17 N          68.5112   92.2794   13.5872 N.ar    1  UNL1       -0.0674
     18 N          67.7932   92.3370   12.2715 N.ar    1  UNL1       -0.2579
     19 H          68.0234   91.8235   11.4636 H       1  UNL1        0.1904
     20 C          66.4445   94.9482   11.0674 C.3     1  UNL1        0.0355
     21 C          66.1511   96.1769   11.8761 C.3     1  UNL1        0.0032
     22 C          67.4977   94.9867    9.9999 C.3     1  UNL1        0.0032
     23 C          61.7156   85.4309   11.4409 C.3     1  UNL1        0.2526
     24 O          61.0210   86.7563   11.5450 O.3     1  UNL1       -0.4684
     25 O          60.8095   88.1140    8.8782 O.3     1  UNL1       -0.4684
     26 C          59.8430   88.9856    8.1325 C.3     1  UNL1        0.2526
@<TRIPOS>BOND
     1    23    24    1
     2    24     1    1
     3     1     2   ar
     4     2     3   ar
     5     3     4   ar
     6     4     5   ar
     7     5     6   ar
     8     6    11    1
     9    11    12    1
    10    11    14    1
    11    14    15   ar
    12    15    16   ar
    13    16    17   ar
    14    17    18   ar
    15    11    20    1
    16    20    21    1
    17    20    22    1
    18     6     7   ar
    19     7     8   ar
    20     8     9   ar
    21     9    10   ar
    22    10    25    1
    23    25    26    1
    24    10     1   ar
    25     8     3   ar
    26    18    14   ar
    27    12    13    1
    28    18    19    1
@<TRIPOS>MOLECULE
*****
 26 28 0 0 0
SMALL
GASTEIGER

@<TRIPOS>ATOM
      1 C          63.8124   90.1318   12.8090 C.ar    1  UNL1        0.1724
      2 C          63.1177   89.1345   11.9300 C.ar    1  UNL1        0.0416
      3 C          63.0443   87.6941   12.3425 C.ar    1  UNL1        0.0224
      4 C          62.3496   86.6968   11.4634 C.ar    1  UNL1        0.0986
      5 N          62.2761   85.2565   11.8759 N.ar    1  UNL1       -0.2455
      6 C          62.8974   84.8136   13.1673 C.ar    1  UNL1        0.0884
      7 C          63.5921   85.8109   14.0463 C.ar    1  UNL1        0.0175
      8 C          63.6655   87.2512   13.6339 C.ar    1  UNL1        0.0060
      9 C          64.3602   88.2486   14.5129 C.ar    1  UNL1        0.0401
     10 C          64.4337   89.6888   14.1005 C.ar    1  UNL1        0.1724
     11 C          62.8239   83.3732   13.5798 C.3     1  UNL1        0.1585
     12 O          62.2387   83.7808   14.8993 O.3     1  UNL1       -0.3755
     13 H          62.1573   84.7468   14.9324 H       1  UNL1        0.2112
     14 C          63.4091   82.9656   12.2602 C.ar    1  UNL1        0.1034
     15 C          62.8082   81.9889   11.2932 C.ar    1  UNL1        0.1405
     16 N          63.7257   81.8827   10.1112 N.ar    1  UNL1       -0.1276
     17 N          64.8937   82.7938   10.3478 N.ar    1  UNL1       -0.0674
     18 N          64.6980   83.4630   11.6758 N.ar    1  UNL1       -0.2579
     19 H          65.3083   84.1144   12.0911 H       1  UNL1        0.1904
     20 C          62.7504   81.9329   13.9921 C.3     1  UNL1        0.0355
     21 C          61.4210   81.3043   14.2880 C.3     1  UNL1        0.0032
     22 C          64.0064   81.1211   14.1086 C.3     1  UNL1        0.0032
     23 C          64.6239   91.9584   11.1491 C.3     1  UNL1        0.2526
     24 O          63.8859   91.5722   12.3966 O.3     1  UNL1       -0.4684
     25 O          65.1284   90.6863   14.9795 O.3     1  UNL1       -0.4684
     26 C          66.4334   91.2863   14.5471 C.3     1  UNL1        0.2526
@<TRIPOS>BOND
     1    23    24    1
     2    24     1    1
     3     1     2   ar
     4     2     3   ar
     5     3     4   ar
     6     4     5   ar
     7     5     6   ar
     8     6    11    1
     9    11    12    1
    10    11    14    1
    11    14    15   ar
    12    15    16   ar
    13    16    17   ar
    14    17    18   ar
    15    11    20    1
    16    20    21    1
    17    20    22    1
    18     6     7   ar
    19     7     8   ar
    20     8     9   ar
    21     9    10   ar
    22    10    25    1
    23    25    26    1
    24    10     1   ar
    25     8     3   ar
    26    18    14   ar
    27    12    13    1
    28    18    19    1
@<TRIPOS>MOLECULE
*****
 26 28 0 0 0
SMALL
GASTEIGER

@<TRIPOS>ATOM
      1 C          63.8735   89.6017   13.0947 C.ar    1  UNL1        0.1724
      2 C          64.3424   88.6849   14.1854 C.ar    1  UNL1        0.0416
      3 C          63.9912   87.2272   14.1425 C.ar    1  UNL1        0.0224
      4 C          64.4600   86.3104   15.2332 C.ar    1  UNL1        0.0986
      5 N          64.1089   84.8527   15.1902 N.ar    1  UNL1       -0.2455
      6 C          63.2889   84.3119   14.0566 C.ar    1  UNL1        0.0884
      7 C          62.8201   85.2286   12.9659 C.ar    1  UNL1        0.0175
      8 C          63.1713   86.6863   13.0089 C.ar    1  UNL1        0.0060
      9 C          62.7024   87.6032   11.9181 C.ar    1  UNL1        0.0401
     10 C          63.0536   89.0608   11.9611 C.ar    1  UNL1        0.1724
     11 C          62.9378   82.8541   14.0137 C.3     1  UNL1        0.1585
     12 O          62.3933   82.9442   15.4084 O.3     1  UNL1       -0.3755
     13 H          62.4899   83.8523   15.7353 H       1  UNL1        0.2112
     14 C          63.4824   82.7640   12.6190 C.ar    1  UNL1        0.1034
     15 C          62.7534   82.2328   11.4205 C.ar    1  UNL1        0.1405
     16 N          63.6721   82.3298   10.2386 N.ar    1  UNL1       -0.1276
     17 N          64.9688   82.9210   10.7067 N.ar    1  UNL1       -0.0674
     18 N          64.8516   83.1894   12.1778 N.ar    1  UNL1       -0.2579
     19 H          65.5505   83.5766   12.7529 H       1  UNL1        0.1904
     20 C          62.5867   81.3964   13.9708 C.3     1  UNL1        0.0355
     21 C          63.6603   80.3726   13.7493 C.3     1  UNL1        0.0032
     22 C          61.1619   80.9626   14.1493 C.3     1  UNL1        0.0032
     23 C          65.4923   91.5062   13.8035 C.3     1  UNL1        0.2526
     24 O          64.2247   91.0594   13.1376 O.3     1  UNL1       -0.4684
     25 O          62.5847   89.9777   10.8703 O.3     1  UNL1       -0.4684
     26 C          61.1206   90.0931   10.5652 C.3     1  UNL1        0.2526
@<TRIPOS>BOND
     1    23    24    1
     2    24     1    1
     3     1     2   ar
     4     2     3   ar
     5     3     4   ar
     6     4     5   ar
     7     5     6   ar
     8     6    11    1
     9    11    12    1
    10    11    14    1
    11    14    15   ar
    12    15    16   ar
    13    16    17   ar
    14    17    18   ar
    15    11    20    1
    16    20    21    1
    17    20    22    1
    18     6     7   ar
    19     7     8   ar
    20     8     9   ar
    21     9    10   ar
    22    10    25    1
    23    25    26    1
    24    10     1   ar
    25     8     3   ar
    26    18    14   ar
    27    12    13    1
    28    18    19    1
@<TRIPOS>MOLECULE
*****
 26 28 0 0 0
SMALL
GASTEIGER

@<TRIPOS>ATOM
      1 C          61.2502   88.2550    9.9363 C.ar    1  UNL1        0.1724
      2 C          61.7799   89.6513    9.7966 C.ar    1  UNL1        0.0416
      3 C          62.7746   90.1788   10.7878 C.ar    1  UNL1        0.0224
      4 C          63.3043   91.5752   10.6481 C.ar    1  UNL1        0.0986
      5 N          64.2990   92.1026   11.6392 N.ar    1  UNL1       -0.2455
      6 C          64.7639   91.2337   12.7701 C.ar    1  UNL1        0.0884
      7 C          64.2342   89.8374   12.9098 C.ar    1  UNL1        0.0175
      8 C          63.2395   89.3099   11.9186 C.ar    1  UNL1        0.0060
      9 C          62.7098   87.9135   12.0583 C.ar    1  UNL1        0.0401
     10 C          61.7151   87.3861   11.0671 C.ar    1  UNL1        0.1724
     11 C          65.7586   91.7612   13.7612 C.3     1  UNL1        0.1585
     12 O          65.1859   90.8607   14.8153 O.3     1  UNL1       -0.3755
     13 H          64.4560   90.3450   14.4382 H       1  UNL1        0.2112
     14 C          66.3313   92.6617   12.7072 C.ar    1  UNL1        0.1034
     15 C          66.1424   94.1471   12.6188 C.ar    1  UNL1        0.1405
     16 N          66.8879   94.6384   11.4134 N.ar    1  UNL1       -0.1276
     17 N          67.5375   93.4565   10.7567 N.ar    1  UNL1       -0.0674
     18 N          67.1936   92.2348   11.5563 N.ar    1  UNL1       -0.2579
     19 H          67.4829   91.3145   11.3602 H       1  UNL1        0.1904
     20 C          66.7533   92.2887   14.7523 C.3     1  UNL1        0.0355
     21 C          68.2212   92.2183   14.4517 C.3     1  UNL1        0.0032
     22 C          66.2801   92.8867   16.0441 C.3     1  UNL1        0.0032
     23 C          59.6689   88.6428    7.9116 C.3     1  UNL1        0.2526
     24 O          60.2554   87.7275    8.9451 O.3     1  UNL1       -0.4684
     25 O          61.1853   85.9897   11.2068 O.3     1  UNL1       -0.4684
     26 C          62.1269   84.8227   11.1658 C.3     1  UNL1        0.2526
@<TRIPOS>BOND
     1    23    24    1
     2    24     1    1
     3     1     2   ar
     4     2     3   ar
     5     3     4   ar
     6     4     5   ar
     7     5     6   ar
     8     6    11    1
     9    11    12    1
    10    11    14    1
    11    14    15   ar
    12    15    16   ar
    13    16    17   ar
    14    17    18   ar
    15    11    20    1
    16    20    21    1
    17    20    22    1
    18     6     7   ar
    19     7     8   ar
    20     8     9   ar
    21     9    10   ar
    22    10    25    1
    23    25    26    1
    24    10     1   ar
    25     8     3   ar
    26    18    14   ar
    27    12    13    1
    28    18    19    1
@<TRIPOS>MOLECULE
*****
 26 28 0 0 0
SMALL
GASTEIGER

@<TRIPOS>ATOM
      1 C          62.1126   86.7267   11.5056 C.ar    1  UNL1        0.1724
      2 C          62.1525   88.1759   11.1209 C.ar    1  UNL1        0.0416
      3 C          63.0010   89.1360   11.9009 C.ar    1  UNL1        0.0224
      4 C          63.0409   90.5852   11.5161 C.ar    1  UNL1        0.0986
      5 N          63.8894   91.5451   12.2961 N.ar    1  UNL1       -0.2455
      6 C          64.6980   91.0559   13.4609 C.ar    1  UNL1        0.0884
      7 C          64.6581   89.6067   13.8457 C.ar    1  UNL1        0.0175
      8 C          63.8096   88.6467   13.0657 C.ar    1  UNL1        0.0060
      9 C          63.7697   87.1974   13.4504 C.ar    1  UNL1        0.0401
     10 C          62.9212   86.2374   12.6704 C.ar    1  UNL1        0.1724
     11 C          65.5465   92.0159   14.2409 C.3     1  UNL1        0.1585
     12 O          64.5731   91.9508   15.3802 O.3     1  UNL1       -0.3755
     13 H          63.8459   91.3514   15.1503 H       1  UNL1        0.2112
     14 C          66.5200   92.0811   13.1016 C.ar    1  UNL1        0.1034
     15 C          67.9450   91.6136   13.1316 C.ar    1  UNL1        0.1405
     16 N          68.5452   91.8688   11.7807 N.ar    1  UNL1       -0.1276
     17 N          67.4910   92.4940   10.9158 N.ar    1  UNL1       -0.0674
     18 N          66.2395   92.6252   11.7322 N.ar    1  UNL1       -0.2579
     19 H          65.3841   93.0023   11.4234 H       1  UNL1        0.1904
     20 C          66.3951   92.9759   15.0209 C.3     1  UNL1        0.0355
     21 C          66.8148   94.2775   14.4046 C.3     1  UNL1        0.0032
     22 C          66.8239   92.6344   16.4172 C.3     1  UNL1        0.0032
     23 C          61.0213   85.9973    9.2635 C.3     1  UNL1        0.2526
     24 O          61.2640   85.7666   10.7256 O.3     1  UNL1       -0.4684
     25 O          62.8813   84.7881   13.0552 O.3     1  UNL1       -0.4684
     26 C          62.7115   84.3984   14.4937 C.3     1  UNL1        0.2526
@<TRIPOS>BOND
     1    23    24    1
     2    24     1    1
     3     1     2   ar
     4     2     3   ar
     5     3     4   ar
     6     4     5   ar
     7     5     6   ar
     8     6    11    1
     9    11    12    1
    10    11    14    1
    11    14    15   ar
    12    15    16   ar
    13    16    17   ar
    14    17    18   ar
    15    11    20    1
    16    20    21    1
    17    20    22    1
    18     6     7   ar
    19     7     8   ar
    20     8     9   ar
    21     9    10   ar
    22    10    25    1
    23    25    26    1
    24    10     1   ar
    25     8     3   ar
    26    18    14   ar
    27    12    13    1
    28    18    19    1
