@<TRIPOS>MOLECULE
*****
 25 27 0 0 0
SMALL
GASTEIGER

@<TRIPOS>ATOM
      1 N          65.2804   92.5687   11.9730 N.pl3   1  UNL1       -0.3063
      2 C          66.0778   92.7136   13.2352 C.3     1  UNL1        0.0912
      3 C          65.8960   91.7313   14.3542 C.3     1  UNL1        0.0261
      4 C          64.9168   90.6041   14.2109 C.3     1  UNL1        0.0295
      5 C          64.1194   90.4592   12.9487 C.ar    1  UNL1       -0.0054
      6 C          63.1402   89.3319   12.8054 C.ar    1  UNL1        0.0371
      7 C          62.3428   89.1870   11.5432 C.ar    1  UNL1        0.1354
      8 C          62.5246   90.1693   10.4243 C.ar    1  UNL1        0.0414
      9 C          63.5038   91.2965   10.5676 C.ar    1  UNL1        0.0177
     10 C          64.3012   91.4415   11.8298 C.ar    1  UNL1        0.0440
     11 N          61.3636   88.0597   11.3999 N.pl3   1  UNL1       -0.1990
     12 H          60.4009   88.2255   11.5220 H       1  UNL1        0.2985
     13 C          61.8512   86.6800   11.0708 C.2     1  UNL1        0.3224
     14 N          62.4067   85.8026   12.1533 N.2     1  UNL1       -0.0985
     15 H          62.4512   86.1324   13.0798 H       1  UNL1        0.3633
     16 C          61.7834   86.1775    9.6591 C.ar    1  UNL1        0.1114
     17 C          62.8642   85.4290    8.9368 C.ar    1  UNL1        0.0144
     18 C          62.3717   85.1242    7.5531 C.ar    1  UNL1        0.0077
     19 C          60.9865   85.6844    7.4203 C.ar    1  UNL1        0.0357
     20 S          60.6230   86.3354    8.7218 S.2     1  UNL1       -0.0792
     21 C          65.4622   93.5510   10.8541 C.3     1  UNL1        0.1081
     22 C          66.6824   94.4224   10.8119 C.3     1  UNL1        0.0938
     23 C          67.6207   95.5570    8.6713 C.3     1  UNL1        0.0897
     24 N          67.5853   94.3911    9.6145 N.3     1  UNL1       -0.2688
     25 C          68.4528   93.1942    9.3604 C.3     1  UNL1        0.0897
@<TRIPOS>BOND
     1    23    24    1
     2    24    25    1
     3    24    22    1
     4    22    21    1
     5    21     1    1
     6     1     2    1
     7     2     3    1
     8     3     4    1
     9     4     5    1
    10     5     6   ar
    11     6     7   ar
    12     7    11    1
    13    11    13    1
    14    13    14    2
    15    13    16    1
    16    16    17   ar
    17    17    18   ar
    18    18    19   ar
    19    19    20   ar
    20     7     8   ar
    21     8     9   ar
    22     9    10   ar
    23    10     1    1
    24    10     5   ar
    25    20    16   ar
    26    11    12    1
    27    14    15    1
@<TRIPOS>MOLECULE
*****
 25 27 0 0 0
SMALL
GASTEIGER

@<TRIPOS>ATOM
      1 N          65.3217   92.5993   12.0329 N.pl3   1  UNL1       -0.3063
      2 C          66.1506   92.6989   13.2791 C.3     1  UNL1        0.0912
      3 C          65.9670   91.7008   14.3837 C.3     1  UNL1        0.0261
      4 C          64.9546   90.6031   14.2421 C.3     1  UNL1        0.0295
      5 C          64.1257   90.5036   12.9959 C.ar    1  UNL1       -0.0054
      6 C          63.1132   89.4059   12.8542 C.ar    1  UNL1        0.0371
      7 C          62.2843   89.3064   11.6080 C.ar    1  UNL1        0.1354
      8 C          62.4679   90.3045   10.5034 C.ar    1  UNL1        0.0414
      9 C          63.4804   91.4021   10.6450 C.ar    1  UNL1        0.0177
     10 C          64.3093   91.5017   11.8913 C.ar    1  UNL1        0.0440
     11 N          61.2718   88.2087   11.4663 N.pl3   1  UNL1       -0.1990
     12 H          60.5989   88.0658   12.1706 H       1  UNL1        0.2985
     13 C          61.2845   87.3288   10.2516 C.2     1  UNL1        0.3224
     14 N          60.4993   87.7191    9.0346 N.2     1  UNL1       -0.0985
     15 H          59.9755   88.5527    9.0331 H       1  UNL1        0.3633
     16 C          62.0825   86.0588   10.2539 C.ar    1  UNL1        0.1114
     17 C          62.7866   85.4577    9.0736 C.ar    1  UNL1        0.0144
     18 C          63.4558   84.1942    9.5271 C.ar    1  UNL1        0.0077
     19 C          63.1652   84.0143   10.9877 C.ar    1  UNL1        0.0357
     20 S          62.3165   85.1666   11.4368 S.2     1  UNL1       -0.0792
     21 C          65.5053   93.5975   10.9283 C.3     1  UNL1        0.1081
     22 C          66.7929   94.3579   10.8110 C.3     1  UNL1        0.0938
     23 C          67.5235   95.3063    8.5051 C.3     1  UNL1        0.0897
     24 N          67.6182   94.2473    9.5633 N.3     1  UNL1       -0.2688
     25 C          68.5382   93.0779    9.3738 C.3     1  UNL1        0.0897
@<TRIPOS>BOND
     1    23    24    1
     2    24    25    1
     3    24    22    1
     4    22    21    1
     5    21     1    1
     6     1     2    1
     7     2     3    1
     8     3     4    1
     9     4     5    1
    10     5     6   ar
    11     6     7   ar
    12     7    11    1
    13    11    13    1
    14    13    14    2
    15    13    16    1
    16    16    17   ar
    17    17    18   ar
    18    18    19   ar
    19    19    20   ar
    20     7     8   ar
    21     8     9   ar
    22     9    10   ar
    23    10     1    1
    24    10     5   ar
    25    20    16   ar
    26    11    12    1
    27    14    15    1
@<TRIPOS>MOLECULE
*****
 25 27 0 0 0
SMALL
GASTEIGER

@<TRIPOS>ATOM
      1 N          63.2594   85.2781   12.8544 N.pl3   1  UNL1       -0.3063
      2 C          62.5468   84.8150   11.6184 C.3     1  UNL1        0.0912
      3 C          62.0268   85.8184   10.6321 C.3     1  UNL1        0.0261
      4 C          62.2195   87.2848   10.8817 C.3     1  UNL1        0.0295
      5 C          62.9321   87.7479   12.1177 C.ar    1  UNL1       -0.0054
      6 C          63.1248   89.2144   12.3674 C.ar    1  UNL1        0.0371
      7 C          63.8374   89.6775   13.6034 C.ar    1  UNL1        0.1354
      8 C          64.3574   88.6741   14.5897 C.ar    1  UNL1        0.0414
      9 C          64.1647   87.2076   14.3401 C.ar    1  UNL1        0.0177
     10 C          63.4521   86.7445   13.1041 C.ar    1  UNL1        0.0440
     11 N          64.0301   91.1440   13.8531 N.pl3   1  UNL1       -0.1990
     12 H          63.7475   91.8000   13.1756 H       1  UNL1        0.2985
     13 C          64.6534   91.6110   15.1350 C.2     1  UNL1        0.3224
     14 N          63.8310   91.6794   16.3876 N.2     1  UNL1       -0.0985
     15 H          62.8821   91.4177   16.3683 H       1  UNL1        0.3633
     16 C          66.0992   92.0096   15.1644 C.ar    1  UNL1        0.1114
     17 C          66.7981   92.7095   16.2920 C.ar    1  UNL1        0.0144
     18 C          68.2307   92.9108   15.8958 C.ar    1  UNL1        0.0077
     19 C          68.4172   92.3351   14.5232 C.ar    1  UNL1        0.0357
     20 S          67.0999   91.7782   14.0712 S.2     1  UNL1       -0.0792
     21 C          63.7793   84.2747   13.8408 C.3     1  UNL1        0.1081
     22 C          62.8392   83.2994   14.4849 C.3     1  UNL1        0.0938
     23 C          63.5811   81.4017   12.8730 C.3     1  UNL1        0.0897
     24 N          62.5885   81.9656   13.8461 N.3     1  UNL1       -0.2688
     25 C          61.3454   81.1957   14.1803 C.3     1  UNL1        0.0897
@<TRIPOS>BOND
     1    23    24    1
     2    24    25    1
     3    24    22    1
     4    22    21    1
     5    21     1    1
     6     1     2    1
     7     2     3    1
     8     3     4    1
     9     4     5    1
    10     5     6   ar
    11     6     7   ar
    12     7    11    1
    13    11    13    1
    14    13    14    2
    15    13    16    1
    16    16    17   ar
    17    17    18   ar
    18    18    19   ar
    19    19    20   ar
    20     7     8   ar
    21     8     9   ar
    22     9    10   ar
    23    10     1    1
    24    10     5   ar
    25    20    16   ar
    26    11    12    1
    27    14    15    1
@<TRIPOS>MOLECULE
*****
 25 27 0 0 0
SMALL
GASTEIGER

@<TRIPOS>ATOM
      1 N          63.2224   85.3295   12.8709 N.pl3   1  UNL1       -0.3063
      2 C          62.5130   84.7485   11.6839 C.3     1  UNL1        0.0912
      3 C          61.9600   85.6539   10.6234 C.3     1  UNL1        0.0261
      4 C          62.1166   87.1403   10.7500 C.3     1  UNL1        0.0295
      5 C          62.8260   87.7213   11.9370 C.ar    1  UNL1       -0.0054
      6 C          62.9826   89.2078   12.0636 C.ar    1  UNL1        0.0371
      7 C          63.6920   89.7888   13.2506 C.ar    1  UNL1        0.1354
      8 C          64.2450   88.8834   14.3110 C.ar    1  UNL1        0.0414
      9 C          64.0884   87.3970   14.1845 C.ar    1  UNL1        0.0177
     10 C          63.3790   86.8159   12.9974 C.ar    1  UNL1        0.0440
     11 N          63.8486   91.2753   13.3772 N.pl3   1  UNL1       -0.1990
     12 H          63.1041   91.8213   13.7189 H       1  UNL1        0.2985
     13 C          65.1395   91.9297   12.9832 C.2     1  UNL1        0.3224
     14 N          65.3438   92.3965   11.5724 N.2     1  UNL1       -0.0985
     15 H          64.6306   92.2733   10.9050 H       1  UNL1        0.3633
     16 C          66.2261   92.1174   14.0001 C.ar    1  UNL1        0.1114
     17 C          67.6997   91.9933   13.7489 C.ar    1  UNL1        0.0144
     18 C          68.4143   92.2613   15.0402 C.ar    1  UNL1        0.0077
     19 C          67.3822   92.5511   16.0895 C.ar    1  UNL1        0.0357
     20 S          66.0299   92.4622   15.4466 S.2     1  UNL1       -0.0792
     21 C          63.7754   84.4242   13.9313 C.3     1  UNL1        0.1081
     22 C          62.8851   83.4164   14.5960 C.3     1  UNL1        0.0938
     23 C          63.8352   81.4510   13.1872 C.3     1  UNL1        0.0897
     24 N          62.7261   82.0485   14.0014 N.3     1  UNL1       -0.2688
     25 C          61.4580   81.2780   14.2211 C.3     1  UNL1        0.0897
@<TRIPOS>BOND
     1    23    24    1
     2    24    25    1
     3    24    22    1
     4    22    21    1
     5    21     1    1
     6     1     2    1
     7     2     3    1
     8     3     4    1
     9     4     5    1
    10     5     6   ar
    11     6     7   ar
    12     7    11    1
    13    11    13    1
    14    13    14    2
    15    13    16    1
    16    16    17   ar
    17    17    18   ar
    18    18    19   ar
    19    19    20   ar
    20     7     8   ar
    21     8     9   ar
    22     9    10   ar
    23    10     1    1
    24    10     5   ar
    25    20    16   ar
    26    11    12    1
    27    14    15    1
@<TRIPOS>MOLECULE
*****
 25 27 0 0 0
SMALL
GASTEIGER

@<TRIPOS>ATOM
      1 N          59.7653   88.4873    7.8355 N.pl3   1  UNL1       -0.3063
      2 C          59.4076   87.1684    7.2171 C.3     1  UNL1        0.0912
      3 C          59.9627   85.8972    7.7881 C.3     1  UNL1        0.0261
      4 C          60.8754   85.9450    8.9774 C.3     1  UNL1        0.0295
      5 C          61.2331   87.2639    9.5958 C.ar    1  UNL1       -0.0054
      6 C          62.1459   87.3117   10.7852 C.ar    1  UNL1        0.0371
      7 C          62.5036   88.6306   11.4036 C.ar    1  UNL1        0.1354
      8 C          61.9485   89.9018   10.8326 C.ar    1  UNL1        0.0414
      9 C          61.0358   89.8541    9.6433 C.ar    1  UNL1        0.0177
     10 C          60.6780   88.5351    9.0248 C.ar    1  UNL1        0.0440
     11 N          63.4164   88.6785   12.5930 N.pl3   1  UNL1       -0.1990
     12 H          64.0366   87.9341   12.7677 H       1  UNL1        0.2985
     13 C          63.3842   89.8603   13.5161 C.2     1  UNL1        0.3224
     14 N          62.2997   89.9785   14.5456 N.2     1  UNL1       -0.0985
     15 H          61.6091   89.2804   14.6155 H       1  UNL1        0.3633
     16 C          64.4364   90.9240   13.4096 C.ar    1  UNL1        0.1114
     17 C          64.6485   91.8406   12.2413 C.ar    1  UNL1        0.0144
     18 C          65.8045   92.7409   12.5623 C.ar    1  UNL1        0.0077
     19 C          66.3068   92.3807   13.9291 C.ar    1  UNL1        0.0357
     20 S          65.4613   91.2578   14.4527 S.2     1  UNL1       -0.0792
     21 C          59.2102   89.7585    7.2645 C.3     1  UNL1        0.1081
     22 C          59.4830   90.1204    5.8347 C.3     1  UNL1        0.0938
     23 C          57.1749   91.1146    5.1759 C.3     1  UNL1        0.0897
     24 N          58.6730   91.1900    5.1640 N.3     1  UNL1       -0.2688
     25 C          59.3610   92.3349    4.4815 C.3     1  UNL1        0.0897
@<TRIPOS>BOND
     1    23    24    1
     2    24    25    1
     3    24    22    1
     4    22    21    1
     5    21     1    1
     6     1     2    1
     7     2     3    1
     8     3     4    1
     9     4     5    1
    10     5     6   ar
    11     6     7   ar
    12     7    11    1
    13    11    13    1
    14    13    14    2
    15    13    16    1
    16    16    17   ar
    17    17    18   ar
    18    18    19   ar
    19    19    20   ar
    20     7     8   ar
    21     8     9   ar
    22     9    10   ar
    23    10     1    1
    24    10     5   ar
    25    20    16   ar
    26    11    12    1
    27    14    15    1
@<TRIPOS>MOLECULE
*****
 25 27 0 0 0
SMALL
GASTEIGER

@<TRIPOS>ATOM
      1 N          65.6756   92.3751   13.3795 N.pl3   1  UNL1       -0.3063
      2 C          66.3763   93.5462   12.7569 C.3     1  UNL1        0.0912
      3 C          66.0867   93.9237   11.3343 C.3     1  UNL1        0.0261
      4 C          65.0965   93.1302   10.5345 C.3     1  UNL1        0.0295
      5 C          64.3959   91.9592   11.1571 C.ar    1  UNL1       -0.0054
      6 C          63.4056   91.1656   10.3573 C.ar    1  UNL1        0.0371
      7 C          62.7050   89.9946   10.9799 C.ar    1  UNL1        0.1354
      8 C          62.9945   89.6171   12.4025 C.ar    1  UNL1        0.0414
      9 C          63.9847   90.4105   13.2023 C.ar    1  UNL1        0.0177
     10 C          64.6854   91.5816   12.5797 C.ar    1  UNL1        0.0440
     11 N          61.7147   89.2010   10.1800 N.pl3   1  UNL1       -0.1990
     12 H          61.4108   89.5325    9.3043 H       1  UNL1        0.2985
     13 C          61.1875   87.9025   10.7145 C.2     1  UNL1        0.3224
     14 N          59.9402   87.8854   11.5477 N.2     1  UNL1       -0.0985
     15 H          59.4677   88.7265   11.7437 H       1  UNL1        0.3633
     16 C          61.9075   86.6210   10.4159 C.ar    1  UNL1        0.1114
     17 C          62.4234   86.1914    9.0745 C.ar    1  UNL1        0.0144
     18 C          63.0729   84.8490    9.2358 C.ar    1  UNL1        0.0077
     19 C          62.9583   84.4488   10.6770 C.ar    1  UNL1        0.0357
     20 S          62.2381   85.5440   11.4063 S.2     1  UNL1       -0.0792
     21 C          65.9652   91.9976   14.8021 C.3     1  UNL1        0.1081
     22 C          66.7344   92.9349   15.6851 C.3     1  UNL1        0.0938
     23 C          68.9375   94.2381   16.1302 C.3     1  UNL1        0.0897
     24 N          68.2194   93.0698   15.5222 N.3     1  UNL1       -0.2688
     25 C          68.9864   92.0365   14.7515 C.3     1  UNL1        0.0897
@<TRIPOS>BOND
     1    23    24    1
     2    24    25    1
     3    24    22    1
     4    22    21    1
     5    21     1    1
     6     1     2    1
     7     2     3    1
     8     3     4    1
     9     4     5    1
    10     5     6   ar
    11     6     7   ar
    12     7    11    1
    13    11    13    1
    14    13    14    2
    15    13    16    1
    16    16    17   ar
    17    17    18   ar
    18    18    19   ar
    19    19    20   ar
    20     7     8   ar
    21     8     9   ar
    22     9    10   ar
    23    10     1    1
    24    10     5   ar
    25    20    16   ar
    26    11    12    1
    27    14    15    1
@<TRIPOS>MOLECULE
*****
 25 27 0 0 0
SMALL
GASTEIGER

@<TRIPOS>ATOM
      1 N          63.5359   90.1098   12.7085 N.pl3   1  UNL1       -0.3063
      2 C          62.8406   90.4475   11.4231 C.3     1  UNL1        0.0912
      3 C          62.2780   89.3535   10.5648 C.3     1  UNL1        0.0261
      4 C          62.4106   87.9218   10.9920 C.3     1  UNL1        0.0295
      5 C          63.1059   87.5841   12.2775 C.ar    1  UNL1       -0.0054
      6 C          63.2386   86.1523   12.7048 C.ar    1  UNL1        0.0371
      7 C          63.9338   85.8146   13.9903 C.ar    1  UNL1        0.1354
      8 C          64.4965   86.9086   14.8486 C.ar    1  UNL1        0.0414
      9 C          64.3638   88.3403   14.4213 C.ar    1  UNL1        0.0177
     10 C          63.6685   88.6781   13.1358 C.ar    1  UNL1        0.0440
     11 N          64.0665   84.3828   14.4176 N.pl3   1  UNL1       -0.1990
     12 H          64.1815   84.1620   15.3701 H       1  UNL1        0.2985
     13 C          64.0240   83.2875   13.3937 C.2     1  UNL1        0.3224
     14 N          64.9590   83.3203   12.2212 N.2     1  UNL1       -0.0985
     15 H          65.6006   84.0607   12.1237 H       1  UNL1        0.3633
     16 C          63.0466   82.1595   13.5422 C.ar    1  UNL1        0.1114
     17 C          61.7610   82.2027   14.3140 C.ar    1  UNL1        0.0144
     18 C          61.1030   80.8601   14.1938 C.ar    1  UNL1        0.0077
     19 C          61.9819   79.9872   13.3478 C.ar    1  UNL1        0.0357
     20 S          63.1831   80.7903   12.9451 S.2     1  UNL1       -0.0792
     21 C          64.0985   91.2038   13.5668 C.3     1  UNL1        0.1081
     22 C          65.3471   91.9204   13.1456 C.3     1  UNL1        0.0938
     23 C          66.1398   92.6039   15.5236 C.3     1  UNL1        0.0897
     24 N          66.4553   92.1395   14.1325 N.3     1  UNL1       -0.2688
     25 C          67.8788   91.8943   13.7285 C.3     1  UNL1        0.0897
@<TRIPOS>BOND
     1    23    24    1
     2    24    25    1
     3    24    22    1
     4    22    21    1
     5    21     1    1
     6     1     2    1
     7     2     3    1
     8     3     4    1
     9     4     5    1
    10     5     6   ar
    11     6     7   ar
    12     7    11    1
    13    11    13    1
    14    13    14    2
    15    13    16    1
    16    16    17   ar
    17    17    18   ar
    18    18    19   ar
    19    19    20   ar
    20     7     8   ar
    21     8     9   ar
    22     9    10   ar
    23    10     1    1
    24    10     5   ar
    25    20    16   ar
    26    11    12    1
    27    14    15    1
@<TRIPOS>MOLECULE
*****
 25 27 0 0 0
SMALL
GASTEIGER

@<TRIPOS>ATOM
      1 N          61.6631   89.2845   10.4548 N.pl3   1  UNL1       -0.3063
      2 C          60.7339   89.0643    9.2981 C.3     1  UNL1        0.0912
      3 C          60.3484   87.6702    8.9006 C.3     1  UNL1        0.0261
      4 C          60.8920   86.4964    9.6599 C.3     1  UNL1        0.0295
      5 C          61.8212   86.7166   10.8166 C.ar    1  UNL1       -0.0054
      6 C          62.3648   85.5427   11.5760 C.ar    1  UNL1        0.0371
      7 C          63.2940   85.7629   12.7327 C.ar    1  UNL1        0.1354
      8 C          63.6795   87.1570   13.1302 C.ar    1  UNL1        0.0414
      9 C          63.1359   88.3308   12.3709 C.ar    1  UNL1        0.0177
     10 C          62.2067   88.1106   11.2141 C.ar    1  UNL1        0.0440
     11 N          63.8377   84.5891   13.4920 N.pl3   1  UNL1       -0.1990
     12 H          64.1176   84.6963   14.4298 H       1  UNL1        0.2985
     13 C          63.9548   83.2519   12.8226 C.2     1  UNL1        0.3224
     14 N          65.0083   83.0253   11.7792 N.2     1  UNL1       -0.0985
     15 H          65.6229   83.7542   11.5337 H       1  UNL1        0.3633
     16 C          63.0185   82.1414   13.1966 C.ar    1  UNL1        0.1114
     17 C          61.8821   82.2368   14.1711 C.ar    1  UNL1        0.0144
     18 C          61.2154   80.8948   14.2386 C.ar    1  UNL1        0.0077
     19 C          61.9398   79.9700   13.3058 C.ar    1  UNL1        0.0357
     20 S          63.0541   80.7404   12.6618 S.2     1  UNL1       -0.0792
     21 C          62.0486   90.6785   10.8523 C.3     1  UNL1        0.1081
     22 C          63.2777   91.3115   10.2705 C.3     1  UNL1        0.0938
     23 C          65.4484   92.6966   10.6164 C.3     1  UNL1        0.0897
     24 N          64.3457   91.8480   11.1769 N.3     1  UNL1       -0.2688
     25 C          64.3112   91.5359   12.6436 C.3     1  UNL1        0.0897
@<TRIPOS>BOND
     1    23    24    1
     2    24    25    1
     3    24    22    1
     4    22    21    1
     5    21     1    1
     6     1     2    1
     7     2     3    1
     8     3     4    1
     9     4     5    1
    10     5     6   ar
    11     6     7   ar
    12     7    11    1
    13    11    13    1
    14    13    14    2
    15    13    16    1
    16    16    17   ar
    17    17    18   ar
    18    18    19   ar
    19    19    20   ar
    20     7     8   ar
    21     8     9   ar
    22     9    10   ar
    23    10     1    1
    24    10     5   ar
    25    20    16   ar
    26    11    12    1
    27    14    15    1
@<TRIPOS>MOLECULE
*****
 25 27 0 0 0
SMALL
GASTEIGER

@<TRIPOS>ATOM
      1 N          63.6541   85.5647   15.2001 N.pl3   1  UNL1       -0.3063
      2 C          63.1111   84.8167   16.3815 C.3     1  UNL1        0.0912
      3 C          62.6177   85.5677   17.5825 C.3     1  UNL1        0.0261
      4 C          62.6672   87.0668   17.6021 C.3     1  UNL1        0.0295
      5 C          63.2102   87.8147   16.4208 C.ar    1  UNL1       -0.0054
      6 C          63.2597   89.3138   16.4404 C.ar    1  UNL1        0.0371
      7 C          63.8027   90.0618   15.2590 C.ar    1  UNL1        0.1354
      8 C          64.2962   89.3108   14.0580 C.ar    1  UNL1        0.0414
      9 C          64.2466   87.8117   14.0383 C.ar    1  UNL1        0.0177
     10 C          63.7036   87.0637   15.2197 C.ar    1  UNL1        0.0440
     11 N          63.8522   91.5609   15.2786 N.pl3   1  UNL1       -0.1990
     12 H          63.1528   92.0826   14.8226 H       1  UNL1        0.2985
     13 C          64.9674   92.2652   15.9929 C.2     1  UNL1        0.3224
     14 N          64.7087   92.9381   17.3083 N.2     1  UNL1       -0.0985
     15 H          63.8070   92.9175   17.7028 H       1  UNL1        0.3633
     16 C          66.3413   92.2966   15.3918 C.ar    1  UNL1        0.1114
     17 C          66.7021   91.8867   13.9947 C.ar    1  UNL1        0.0144
     18 C          68.1794   92.0801   13.8217 C.ar    1  UNL1        0.0077
     19 C          68.7318   92.6095   15.1120 C.ar    1  UNL1        0.0357
     20 S          67.5958   92.7432   16.0823 S.2     1  UNL1       -0.0792
     21 C          64.1476   84.8136   13.9991 C.3     1  UNL1        0.1081
     22 C          63.1707   84.2908   12.9879 C.3     1  UNL1        0.0938
     23 C          62.1990   82.1120   14.0168 C.3     1  UNL1        0.0897
     24 N          62.9027   82.8179   12.8958 N.3     1  UNL1       -0.2688
     25 C          63.3384   82.0507   11.6827 C.3     1  UNL1        0.0897
@<TRIPOS>BOND
     1    23    24    1
     2    24    25    1
     3    24    22    1
     4    22    21    1
     5    21     1    1
     6     1     2    1
     7     2     3    1
     8     3     4    1
     9     4     5    1
    10     5     6   ar
    11     6     7   ar
    12     7    11    1
    13    11    13    1
    14    13    14    2
    15    13    16    1
    16    16    17   ar
    17    17    18   ar
    18    18    19   ar
    19    19    20   ar
    20     7     8   ar
    21     8     9   ar
    22     9    10   ar
    23    10     1    1
    24    10     5   ar
    25    20    16   ar
    26    11    12    1
    27    14    15    1
