@<TRIPOS>MOLECULE
*****
 49 53 0 0 0
SMALL
GASTEIGER

@<TRIPOS>ATOM
      1 N          63.2016   83.3768   13.4839 N.am    1  UNL1       -0.2735
      2 C          63.8082   83.7288   14.8098 C.2     1  UNL1        0.2492
      3 O          64.6272   82.7152   15.5527 O.2     1  UNL1       -0.2699
      4 C          63.5959   85.0945   15.3929 C.ar    1  UNL1        0.0567
      5 C          62.7984   85.2563   16.6529 C.ar    1  UNL1        0.0063
      6 C          62.5861   86.6220   17.2359 C.ar    1  UNL1        0.0225
      7 C          63.1714   87.8258   16.5589 C.ar    1  UNL1        0.1202
      8 N          63.1298   89.2867   16.8968 N.ar    1  UNL1       -0.1948
      9 C          63.9016   90.0277   15.8455 C.ar    1  UNL1        0.2891
     10 O          64.4203   89.0248   14.8580 O.2     1  UNL1       -0.4239
     11 C          63.9690   87.6639   15.2989 C.ar    1  UNL1        0.1662
     12 C          64.1813   86.2983   14.7159 C.ar    1  UNL1        0.0437
     13 N          64.1170   91.5112   15.7913 N.pl3   1  UNL1       -0.2883
     14 H          63.3595   92.1241   15.9321 H       1  UNL1        0.1511
     15 C          65.4866   92.0608   15.5224 C.3     1  UNL1        0.0931
     16 C          65.9677   92.2183   14.1104 C.3     1  UNL1        0.0458
     17 C          66.3859   93.5678   13.6067 C.3     1  UNL1        0.1094
     18 N          66.4961   93.8166   12.1316 N.ar    1  UNL1       -0.3078
     19 C          66.8750   92.8033   11.0925 C.ar    1  UNL1        0.0980
     20 C          66.8597   93.4829    9.7553 C.ar    1  UNL1        0.1193
     21 N          66.4714   94.9160    9.9680 N.ar    1  UNL1       -0.2223
     22 C          66.2466   95.1222   11.4367 C.ar    1  UNL1        0.1786
     23 C          62.3827   84.3905   12.7410 C.3     1  UNL1        0.1245
     24 C          62.7510   84.7688   11.3369 C.3     1  UNL1        0.1484
     25 O          63.4680   83.7864   10.4590 O.3     1  UNL1       -0.3810
     26 H          63.6158   82.9625   10.9492 H       1  UNL1        0.2105
     27 C          62.4021   86.1295   10.8109 C.3     1  UNL1        0.1075
     28 N          61.6552   87.0998   11.6773 N.am    1  UNL1       -0.2695
     29 C          60.3353   87.6489   11.2231 C.2     1  UNL1        0.4020
     30 O          59.7623   87.2276    9.9023 O.2     1  UNL1       -0.2264
     31 H          62.0313   87.3763   12.5442 H       1  UNL1        0.1528
     32 O          59.5884   88.6191   12.0895 O.3     1  UNL1       -0.4291
     33 C          59.9909   90.0638   12.1171 C.3     1  UNL1        0.2447
     34 C          61.3262   90.4809   11.5755 C.ar    1  UNL1        0.0714
     35 C          61.6445   90.7658   10.1376 C.ar    1  UNL1        0.1053
     36 N          63.0925   91.1472   10.0502 N.ar    1  UNL1       -0.2350
     37 C          63.6692   91.0980   11.4341 C.ar    1  UNL1        0.1343
     38 S          62.5775   90.6861   12.3768 S.2     1  UNL1       -0.0652
     39 C          62.8002   86.5200    9.4184 C.3     1  UNL1        0.0485
     40 C          62.2485   85.7698    8.2425 C.ar    1  UNL1       -0.0204
     41 C          63.1638   84.9592    7.3734 C.ar    1  UNL1       -0.0042
     42 C          62.6120   84.2090    6.1975 C.ar    1  UNL1       -0.0003
     43 C          61.1450   84.2693    5.8906 C.ar    1  UNL1       -0.0000
     44 C          60.2297   85.0798    6.7597 C.ar    1  UNL1       -0.0003
     45 C          60.7814   85.8301    7.9356 C.ar    1  UNL1       -0.0042
     46 C          63.4139   82.0111   12.9008 C.3     1  UNL1        0.0937
     47 C          62.5173   79.6206   12.4199 C.3     1  UNL1        0.0018
     48 C          62.4152   80.9220   13.1586 C.3     1  UNL1        0.0199
     49 C          61.3144   81.1345   14.1553 C.3     1  UNL1        0.0018
@<TRIPOS>BOND
     1    47    48    1
     2    48    49    1
     3    48    46    1
     4    46     1    1
     5     1    23    1
     6    23    24    1
     7    24    25    1
     8    24    27    1
     9    27    39    1
    10    39    40    1
    11    40    41   ar
    12    41    42   ar
    13    42    43   ar
    14    43    44   ar
    15    44    45   ar
    16    27    28    1
    17    28    29   am
    18    29    30    2
    19    29    32    1
    20    32    33    1
    21    33    34    1
    22    34    35   ar
    23    35    36   ar
    24    36    37   ar
    25    37    38   ar
    26     1     2   am
    27     2     3    2
    28     2     4    1
    29     4     5   ar
    30     5     6   ar
    31     6     7   ar
    32     7     8   ar
    33     8     9   ar
    34     9    13    1
    35    13    15    1
    36    15    16    1
    37    16    17    1
    38    17    18    1
    39    18    19   ar
    40    19    20   ar
    41    20    21   ar
    42    21    22   ar
    43     9    10   ar
    44    10    11   ar
    45    11    12   ar
    46    45    40   ar
    47    38    34   ar
    48    12     4   ar
    49    11     7   ar
    50    22    18   ar
    51    25    26    1
    52    28    31    1
    53    13    14    1
@<TRIPOS>MOLECULE
*****
 49 53 0 0 0
SMALL
GASTEIGER

@<TRIPOS>ATOM
      1 N          63.6933   87.0562   13.7958 N.am    1  UNL1       -0.2735
      2 C          62.9366   85.9200   13.1742 C.2     1  UNL1        0.2492
      3 O          62.7376   84.6445   13.9380 O.2     1  UNL1       -0.2699
      4 C          62.3789   86.0593   11.7886 C.ar    1  UNL1        0.0567
      5 C          62.7780   85.0872   10.7183 C.ar    1  UNL1        0.0063
      6 C          62.2203   85.2266    9.3328 C.ar    1  UNL1        0.0225
      7 C          61.2636   86.3381    9.0177 C.ar    1  UNL1        0.1202
      8 N          60.5553   86.7245    7.7531 N.ar    1  UNL1       -0.1948
      9 C          59.7185   87.9354    8.0420 C.ar    1  UNL1        0.2891
     10 O          59.9097   88.2974    9.4851 O.2     1  UNL1       -0.4239
     11 C          60.8645   87.3102   10.0881 C.ar    1  UNL1        0.1662
     12 C          61.4222   87.1708   11.4735 C.ar    1  UNL1        0.0437
     13 N          58.8441   88.6576    7.0602 N.pl3   1  UNL1       -0.2883
     14 H          57.9212   88.3519    6.9051 H       1  UNL1        0.1511
     15 C          59.3759   89.8456    6.3146 C.3     1  UNL1        0.0931
     16 C          58.5032   90.5650    5.3294 C.3     1  UNL1        0.0458
     17 C          58.8350   91.9690    4.9187 C.3     1  UNL1        0.1094
     18 N          59.9739   92.2257    3.9771 N.ar    1  UNL1       -0.3078
     19 C          59.9340   93.1089    2.7653 C.ar    1  UNL1        0.0980
     20 C          61.2882   93.0733    2.1211 C.ar    1  UNL1        0.1193
     21 N          62.1649   92.1681    2.9347 N.ar    1  UNL1       -0.2223
     22 C          61.3526   91.6443    4.0817 C.ar    1  UNL1        0.1786
     23 C          63.8924   88.3317   13.0320 C.3     1  UNL1        0.1245
     24 C          63.4476   89.6368   13.6227 C.3     1  UNL1        0.1484
     25 O          62.0309   89.8066   14.0853 O.3     1  UNL1       -0.3810
     26 H          61.5399   88.9842   13.9320 H       1  UNL1        0.2105
     27 C          64.4196   90.7721   13.7508 C.3     1  UNL1        0.1075
     28 N          64.7900   91.5821   12.5438 N.am    1  UNL1       -0.2695
     29 C          63.8358   91.6903   11.3915 C.2     1  UNL1        0.4020
     30 O          62.5112   90.9884   11.4462 O.2     1  UNL1       -0.2264
     31 H          65.6593   92.0428   12.5079 H       1  UNL1        0.1528
     32 O          64.2061   92.5002   10.1846 O.3     1  UNL1       -0.4291
     33 C          65.1322   93.6721   10.3230 C.3     1  UNL1        0.2447
     34 C          66.5840   93.5258    9.9752 C.ar    1  UNL1        0.0714
     35 C          67.4862   94.6170    9.4796 C.ar    1  UNL1        0.1053
     36 N          68.8483   94.0283    9.2601 N.ar    1  UNL1       -0.2350
     37 C          68.7879   92.5734    9.6201 C.ar    1  UNL1        0.1343
     38 S          67.3886   92.2628   10.0620 S.2     1  UNL1       -0.0652
     39 C          65.0212   91.0974   15.0858 C.3     1  UNL1        0.0485
     40 C          66.3664   91.7565   15.1616 C.ar    1  UNL1       -0.0204
     41 C          66.6578   92.7431   16.2533 C.ar    1  UNL1       -0.0042
     42 C          68.0031   93.4022   16.3291 C.ar    1  UNL1       -0.0003
     43 C          69.0570   93.0748   15.3132 C.ar    1  UNL1       -0.0000
     44 C          68.7657   92.0882   14.2215 C.ar    1  UNL1       -0.0003
     45 C          67.4204   91.4291   14.1457 C.ar    1  UNL1       -0.0042
     46 C          64.2510   86.9168   15.1814 C.3     1  UNL1        0.0937
     47 C          62.6886   85.9072   16.9950 C.3     1  UNL1        0.0018
     48 C          63.3562   87.0970   16.3716 C.3     1  UNL1        0.0199
     49 C          63.1289   88.4671   16.9385 C.3     1  UNL1        0.0018
@<TRIPOS>BOND
     1    47    48    1
     2    48    49    1
     3    48    46    1
     4    46     1    1
     5     1    23    1
     6    23    24    1
     7    24    25    1
     8    24    27    1
     9    27    39    1
    10    39    40    1
    11    40    41   ar
    12    41    42   ar
    13    42    43   ar
    14    43    44   ar
    15    44    45   ar
    16    27    28    1
    17    28    29   am
    18    29    30    2
    19    29    32    1
    20    32    33    1
    21    33    34    1
    22    34    35   ar
    23    35    36   ar
    24    36    37   ar
    25    37    38   ar
    26     1     2   am
    27     2     3    2
    28     2     4    1
    29     4     5   ar
    30     5     6   ar
    31     6     7   ar
    32     7     8   ar
    33     8     9   ar
    34     9    13    1
    35    13    15    1
    36    15    16    1
    37    16    17    1
    38    17    18    1
    39    18    19   ar
    40    19    20   ar
    41    20    21   ar
    42    21    22   ar
    43     9    10   ar
    44    10    11   ar
    45    11    12   ar
    46    45    40   ar
    47    38    34   ar
    48    12     4   ar
    49    11     7   ar
    50    22    18   ar
    51    25    26    1
    52    28    31    1
    53    13    14    1
@<TRIPOS>MOLECULE
*****
 49 53 0 0 0
SMALL
GASTEIGER

@<TRIPOS>ATOM
      1 N          59.9663   88.6791    8.8908 N.am    1  UNL1       -0.2735
      2 C          59.3023   88.4170    7.5716 C.2     1  UNL1        0.2492
      3 O          58.7352   87.0606    7.2738 O.2     1  UNL1       -0.2699
      4 C          59.2053   89.5112    6.5502 C.ar    1  UNL1        0.0567
      5 C          57.8818   90.1577    6.2670 C.ar    1  UNL1        0.0063
      6 C          57.7849   91.2519    5.2456 C.ar    1  UNL1        0.0225
      7 C          59.0115   91.6996    4.5074 C.ar    1  UNL1        0.1202
      8 N          59.2228   92.7461    3.4536 N.ar    1  UNL1       -0.1948
      9 C          60.6769   92.7463    3.0856 C.ar    1  UNL1        0.2891
     10 O          61.3643   91.7000    3.9119 O.2     1  UNL1       -0.4239
     11 C          60.3351   91.0531    4.7906 C.ar    1  UNL1        0.1662
     12 C          60.4320   89.9589    5.8120 C.ar    1  UNL1        0.0437
     13 N          61.3292   93.6366    2.0696 N.pl3   1  UNL1       -0.2883
     14 H          61.7340   94.4891    2.3498 H       1  UNL1        0.1511
     15 C          61.3646   93.2278    0.6269 C.3     1  UNL1        0.0931
     16 C          60.3637   93.7920   -0.3374 C.3     1  UNL1        0.0458
     17 C          59.0415   94.2940    0.1622 C.3     1  UNL1        0.1094
     18 N          57.7868   93.9907   -0.6018 N.ar    1  UNL1       -0.3078
     19 C          56.8588   95.0005   -1.2094 C.ar    1  UNL1        0.0980
     20 C          55.7383   94.2582   -1.8755 C.ar    1  UNL1        0.1193
     21 N          55.9739   92.7898   -1.6795 N.ar    1  UNL1       -0.2223
     22 C          57.2400   92.6246   -0.8923 C.ar    1  UNL1        0.1786
     23 C          60.5334   90.0355    9.1887 C.3     1  UNL1        0.1245
     24 C          61.0930   90.3324   10.5484 C.3     1  UNL1        0.1484
     25 O          60.1675   90.5865   11.7012 O.3     1  UNL1       -0.3810
     26 H          59.2483   90.5218   11.3982 H       1  UNL1        0.2105
     27 C          62.5780   90.3752   10.7553 C.3     1  UNL1        0.1075
     28 N          63.2877   89.1916   11.3432 N.am    1  UNL1       -0.2695
     29 C          63.1611   88.8926   12.8076 C.2     1  UNL1        0.4020
     30 O          62.3247   89.7771   13.6841 O.2     1  UNL1       -0.2264
     31 H          63.8367   88.6111   10.7679 H       1  UNL1        0.1528
     32 O          63.8707   87.7091   13.3955 O.3     1  UNL1       -0.4291
     33 C          64.3185   87.7380   14.8269 C.3     1  UNL1        0.2447
     34 C          63.5844   86.9339   15.8587 C.ar    1  UNL1        0.0714
     35 C          62.9619   87.4687   17.1143 C.ar    1  UNL1        0.1053
     36 N          62.3367   86.3193   17.8477 N.ar    1  UNL1       -0.2350
     37 C          62.5728   85.0741   17.0454 C.ar    1  UNL1        0.1343
     38 S          63.3439   85.4540   15.8161 S.2     1  UNL1       -0.0652
     39 C          63.3533   91.6014   10.3743 C.3     1  UNL1        0.0485
     40 C          64.6129   91.9509   11.1099 C.ar    1  UNL1       -0.0204
     41 C          65.8447   92.3377   10.3463 C.ar    1  UNL1       -0.0042
     42 C          67.1043   92.6873   11.0820 C.ar    1  UNL1       -0.0003
     43 C          67.1322   92.6500   12.5813 C.ar    1  UNL1       -0.0000
     44 C          65.9004   92.2631   13.3449 C.ar    1  UNL1       -0.0003
     45 C          64.6408   91.9136   12.6093 C.ar    1  UNL1       -0.0042
     46 C          60.0633   87.5849    9.9123 C.3     1  UNL1        0.0937
     47 C          61.6104   85.9117   11.1600 C.3     1  UNL1        0.0018
     48 C          61.2466   86.6631    9.9138 C.3     1  UNL1        0.0199
     49 C          62.0661   86.4926    8.6690 C.3     1  UNL1        0.0018
@<TRIPOS>BOND
     1    47    48    1
     2    48    49    1
     3    48    46    1
     4    46     1    1
     5     1    23    1
     6    23    24    1
     7    24    25    1
     8    24    27    1
     9    27    39    1
    10    39    40    1
    11    40    41   ar
    12    41    42   ar
    13    42    43   ar
    14    43    44   ar
    15    44    45   ar
    16    27    28    1
    17    28    29   am
    18    29    30    2
    19    29    32    1
    20    32    33    1
    21    33    34    1
    22    34    35   ar
    23    35    36   ar
    24    36    37   ar
    25    37    38   ar
    26     1     2   am
    27     2     3    2
    28     2     4    1
    29     4     5   ar
    30     5     6   ar
    31     6     7   ar
    32     7     8   ar
    33     8     9   ar
    34     9    13    1
    35    13    15    1
    36    15    16    1
    37    16    17    1
    38    17    18    1
    39    18    19   ar
    40    19    20   ar
    41    20    21   ar
    42    21    22   ar
    43     9    10   ar
    44    10    11   ar
    45    11    12   ar
    46    45    40   ar
    47    38    34   ar
    48    12     4   ar
    49    11     7   ar
    50    22    18   ar
    51    25    26    1
    52    28    31    1
    53    13    14    1
@<TRIPOS>MOLECULE
*****
 49 53 0 0 0
SMALL
GASTEIGER

@<TRIPOS>ATOM
      1 N          61.1935   89.3587   10.4201 N.am    1  UNL1       -0.2735
      2 C          60.6874   88.0531    9.8823 C.2     1  UNL1        0.2492
      3 O          59.2770   87.9435    9.3838 O.2     1  UNL1       -0.2699
      4 C          61.5919   86.8570    9.8430 C.ar    1  UNL1        0.0567
      5 C          62.2054   86.4230    8.5449 C.ar    1  UNL1        0.0063
      6 C          63.1098   85.2270    8.5057 C.ar    1  UNL1        0.0225
      7 C          63.4006   84.4650    9.7646 C.ar    1  UNL1        0.1202
      8 N          64.2465   83.2556   10.0331 N.ar    1  UNL1       -0.1948
      9 C          64.1557   82.9423   11.4972 C.ar    1  UNL1        0.2891
     10 O          63.2537   83.9579   12.1335 O.2     1  UNL1       -0.4239
     11 C          62.7871   84.8990   11.0627 C.ar    1  UNL1        0.1662
     12 C          61.8827   86.0950   11.1019 C.ar    1  UNL1        0.0437
     13 N          64.8458   81.8118   12.2014 N.pl3   1  UNL1       -0.2883
     14 H          65.8040   81.6471   12.0467 H       1  UNL1        0.1511
     15 C          64.0758   80.9321   13.1412 C.3     1  UNL1        0.0931
     16 C          62.5901   81.0923   13.2710 C.3     1  UNL1        0.0458
     17 C          62.0089   81.7317   14.4971 C.3     1  UNL1        0.1094
     18 N          62.5366   83.0513   14.9766 N.ar    1  UNL1       -0.3078
     19 C          63.9727   83.3740   15.2656 C.ar    1  UNL1        0.0980
     20 C          64.0446   84.8021   15.7190 C.ar    1  UNL1        0.1193
     21 N          62.6530   85.3619   15.7102 N.ar    1  UNL1       -0.2223
     22 C          61.7210   84.2797   15.2514 C.ar    1  UNL1        0.1786
     23 C          62.6040   89.4683   10.9186 C.3     1  UNL1        0.1245
     24 C          63.3140   90.7890   10.8762 C.3     1  UNL1        0.1484
     25 O          63.0815   91.7290    9.7306 O.3     1  UNL1       -0.3810
     26 H          62.4498   91.3327    9.1103 H       1  UNL1        0.2105
     27 C          64.2564   91.1697   11.9793 C.3     1  UNL1        0.1075
     28 N          64.6525   92.6044   12.1656 N.am    1  UNL1       -0.2695
     29 C          66.0940   92.9636   12.3731 C.2     1  UNL1        0.4020
     30 O          67.1394   91.8880   12.3943 O.2     1  UNL1       -0.2264
     31 H          63.9664   93.3103   12.1517 H       1  UNL1        0.1528
     32 O          66.4902   94.3983   12.5594 O.3     1  UNL1       -0.4291
     33 C          65.9884   95.4444   11.6087 C.3     1  UNL1        0.2447
     34 C          66.5586   95.5352   10.2242 C.ar    1  UNL1        0.0714
     35 C          66.9545   94.3778    9.3561 C.ar    1  UNL1        0.1053
     36 N          67.4736   94.9265    8.0602 N.ar    1  UNL1       -0.2350
     37 C          67.3984   96.4232    8.1274 C.ar    1  UNL1        0.1343
     38 S          66.8329   96.7993    9.4648 S.2     1  UNL1       -0.0652
     39 C          64.8027   90.1157   12.8961 C.3     1  UNL1        0.0485
     40 C          64.2746   89.9911   14.2945 C.ar    1  UNL1       -0.0204
     41 C          63.8828   88.6464   14.8313 C.ar    1  UNL1       -0.0042
     42 C          63.3547   88.5219   16.2298 C.ar    1  UNL1       -0.0003
     43 C          63.2185   89.7421   17.0914 C.ar    1  UNL1       -0.0000
     44 C          63.6104   91.0868   16.5547 C.ar    1  UNL1       -0.0003
     45 C          64.1384   91.2114   15.1563 C.ar    1  UNL1       -0.0042
     46 C          60.2891   90.5548   10.4594 C.3     1  UNL1        0.0937
     47 C          59.0760   89.5716   12.5359 C.3     1  UNL1        0.0018
     48 C          59.2553   90.6782   11.5393 C.3     1  UNL1        0.0199
     49 C          58.4008   91.9082   11.6224 C.3     1  UNL1        0.0018
@<TRIPOS>BOND
     1    47    48    1
     2    48    49    1
     3    48    46    1
     4    46     1    1
     5     1    23    1
     6    23    24    1
     7    24    25    1
     8    24    27    1
     9    27    39    1
    10    39    40    1
    11    40    41   ar
    12    41    42   ar
    13    42    43   ar
    14    43    44   ar
    15    44    45   ar
    16    27    28    1
    17    28    29   am
    18    29    30    2
    19    29    32    1
    20    32    33    1
    21    33    34    1
    22    34    35   ar
    23    35    36   ar
    24    36    37   ar
    25    37    38   ar
    26     1     2   am
    27     2     3    2
    28     2     4    1
    29     4     5   ar
    30     5     6   ar
    31     6     7   ar
    32     7     8   ar
    33     8     9   ar
    34     9    13    1
    35    13    15    1
    36    15    16    1
    37    16    17    1
    38    17    18    1
    39    18    19   ar
    40    19    20   ar
    41    20    21   ar
    42    21    22   ar
    43     9    10   ar
    44    10    11   ar
    45    11    12   ar
    46    45    40   ar
    47    38    34   ar
    48    12     4   ar
    49    11     7   ar
    50    22    18   ar
    51    25    26    1
    52    28    31    1
    53    13    14    1
@<TRIPOS>MOLECULE
*****
 49 53 0 0 0
SMALL
GASTEIGER

@<TRIPOS>ATOM
      1 N          61.1596   88.9601   10.3098 N.am    1  UNL1       -0.2735
      2 C          60.7351   87.6646    9.6840 C.2     1  UNL1        0.2492
      3 O          59.3879   87.5517    9.0340 O.2     1  UNL1       -0.2699
      4 C          61.6576   86.4821    9.7083 C.ar    1  UNL1        0.0567
      5 C          62.3373   86.0351    8.4480 C.ar    1  UNL1        0.0063
      6 C          63.2598   84.8527    8.4723 C.ar    1  UNL1        0.0225
      7 C          63.5027   84.1171    9.7568 C.ar    1  UNL1        0.1202
      8 N          64.3527   82.9258   10.0860 N.ar    1  UNL1       -0.1948
      9 C          64.1984   82.6365   11.5497 C.ar    1  UNL1        0.2891
     10 O          63.2530   83.6490   12.1251 O.2     1  UNL1       -0.4239
     11 C          62.8231   84.5641   11.0170 C.ar    1  UNL1        0.1662
     12 C          61.9005   85.7466   10.9928 C.ar    1  UNL1        0.0437
     13 N          64.8712   81.5291   12.3053 N.pl3   1  UNL1       -0.2883
     14 H          65.7559   81.2049   12.0198 H       1  UNL1        0.1511
     15 C          64.1962   80.9156   13.4961 C.3     1  UNL1        0.0931
     16 C          62.6989   80.9012   13.5847 C.3     1  UNL1        0.0458
     17 C          62.0005   81.7371   14.6159 C.3     1  UNL1        0.1094
     18 N          62.5593   83.0747   15.0011 N.ar    1  UNL1       -0.3078
     19 C          63.9954   83.3729   15.3153 C.ar    1  UNL1        0.0980
     20 C          64.1038   84.8315   15.6481 C.ar    1  UNL1        0.1193
     21 N          62.7348   85.4348   15.5394 N.ar    1  UNL1       -0.2223
     22 C          61.7803   84.3490   15.1396 C.ar    1  UNL1        0.1786
     23 C          62.5067   89.0730   10.9598 C.3     1  UNL1        0.1245
     24 C          62.7052   90.0066   12.1171 C.3     1  UNL1        0.1484
     25 O          61.9354   89.8000   13.3878 O.3     1  UNL1       -0.3810
     26 H          61.3589   89.0256   13.2943 H       1  UNL1        0.2105
     27 C          63.6733   91.1466   12.0035 C.3     1  UNL1        0.1075
     28 N          64.2121   91.7993   13.2420 N.am    1  UNL1       -0.2695
     29 C          64.6913   90.9560   14.3863 C.2     1  UNL1        0.4020
     30 O          64.6318   89.4601   14.2920 O.2     1  UNL1       -0.2264
     31 H          64.2511   92.7811   13.3039 H       1  UNL1        0.1528
     32 O          65.2300   91.6086   15.6248 O.3     1  UNL1       -0.4291
     33 C          66.1737   92.7690   15.5112 C.3     1  UNL1        0.2447
     34 C          67.5340   92.5734   14.9101 C.ar    1  UNL1        0.0714
     35 C          67.8293   91.9300   13.5876 C.ar    1  UNL1        0.1053
     36 N          69.3156   91.9458   13.3861 N.ar    1  UNL1       -0.2350
     37 C          69.9389   92.5990   14.5840 C.ar    1  UNL1        0.1343
     38 S          68.8378   92.9869   15.5258 S.2     1  UNL1       -0.0652
     39 C          64.1028   91.6340   10.6515 C.3     1  UNL1        0.0485
     40 C          65.2952   92.5349   10.5230 C.ar    1  UNL1       -0.0204
     41 C          65.1639   93.9996   10.8185 C.ar    1  UNL1       -0.0042
     42 C          66.3564   94.9005   10.6900 C.ar    1  UNL1       -0.0003
     43 C          67.6801   94.3367   10.2660 C.ar    1  UNL1       -0.0000
     44 C          67.8114   92.8719    9.9705 C.ar    1  UNL1       -0.0003
     45 C          66.6190   91.9711   10.0990 C.ar    1  UNL1       -0.0042
     46 C          60.2370   90.1426   10.2856 C.3     1  UNL1        0.0937
     47 C          58.6286   91.6974   11.6068 C.3     1  UNL1        0.0018
     48 C          59.2541   90.3499   11.3995 C.3     1  UNL1        0.0199
     49 C          58.8966   89.2096   12.3062 C.3     1  UNL1        0.0018
@<TRIPOS>BOND
     1    47    48    1
     2    48    49    1
     3    48    46    1
     4    46     1    1
     5     1    23    1
     6    23    24    1
     7    24    25    1
     8    24    27    1
     9    27    39    1
    10    39    40    1
    11    40    41   ar
    12    41    42   ar
    13    42    43   ar
    14    43    44   ar
    15    44    45   ar
    16    27    28    1
    17    28    29   am
    18    29    30    2
    19    29    32    1
    20    32    33    1
    21    33    34    1
    22    34    35   ar
    23    35    36   ar
    24    36    37   ar
    25    37    38   ar
    26     1     2   am
    27     2     3    2
    28     2     4    1
    29     4     5   ar
    30     5     6   ar
    31     6     7   ar
    32     7     8   ar
    33     8     9   ar
    34     9    13    1
    35    13    15    1
    36    15    16    1
    37    16    17    1
    38    17    18    1
    39    18    19   ar
    40    19    20   ar
    41    20    21   ar
    42    21    22   ar
    43     9    10   ar
    44    10    11   ar
    45    11    12   ar
    46    45    40   ar
    47    38    34   ar
    48    12     4   ar
    49    11     7   ar
    50    22    18   ar
    51    25    26    1
    52    28    31    1
    53    13    14    1
@<TRIPOS>MOLECULE
*****
 49 53 0 0 0
SMALL
GASTEIGER

@<TRIPOS>ATOM
      1 N          60.0468   88.7965    8.2638 N.am    1  UNL1       -0.2735
      2 C          59.9130   87.3027    8.2831 C.2     1  UNL1        0.2492
      3 O          58.7355   86.6466    7.6250 O.2     1  UNL1       -0.2699
      4 C          60.9567   86.4648    8.9604 C.ar    1  UNL1        0.0567
      5 C          61.9898   85.7480    8.1427 C.ar    1  UNL1        0.0063
      6 C          63.0335   84.9102    8.8200 C.ar    1  UNL1        0.0225
      7 C          63.0440   84.7893   10.3151 C.ar    1  UNL1        0.1202
      8 N          63.9422   84.0413   11.2553 N.ar    1  UNL1       -0.1948
      9 C          63.4641   84.2958   12.6541 C.ar    1  UNL1        0.2891
     10 O          62.2705   85.2012   12.5784 O.2     1  UNL1       -0.4239
     11 C          62.0109   85.5061   11.1328 C.ar    1  UNL1        0.1662
     12 C          60.9672   86.3439   10.4555 C.ar    1  UNL1        0.0437
     13 N          64.0728   83.7423   13.9084 N.pl3   1  UNL1       -0.2883
     14 H          64.9107   84.1226   14.2583 H       1  UNL1        0.1511
     15 C          63.4047   82.6093   14.6294 C.3     1  UNL1        0.0931
     16 C          62.2665   81.8764   13.9835 C.3     1  UNL1        0.0458
     17 C          62.4300   80.4399   13.5836 C.3     1  UNL1        0.1094
     18 N          62.6486   80.0825   12.1434 N.ar    1  UNL1       -0.3078
     19 C          62.5361   78.7100   11.5488 C.ar    1  UNL1        0.0980
     20 C          62.8361   78.8141   10.0827 C.ar    1  UNL1        0.1193
     21 N          63.1340   80.2508    9.7714 N.ar    1  UNL1       -0.2223
     22 C          63.0181   81.0347   11.0449 C.ar    1  UNL1        0.1786
     23 C          61.2243   89.4526    8.9218 C.3     1  UNL1        0.1245
     24 C          61.0197   90.3355   10.1172 C.3     1  UNL1        0.1484
     25 O          59.6350   90.7583   10.5091 O.3     1  UNL1       -0.3810
     26 H          58.9930   90.3768    9.8901 H       1  UNL1        0.2105
     27 C          62.2000   90.7954   10.9206 C.3     1  UNL1        0.1075
     28 N          62.0932   90.9095   12.4125 N.am    1  UNL1       -0.2695
     29 C          62.5632   89.7844   13.2862 C.2     1  UNL1        0.4020
     30 O          63.1399   88.5453   12.6680 O.2     1  UNL1       -0.2264
     31 H          61.7147   91.7227   12.8182 H       1  UNL1        0.1528
     32 O          62.4564   89.8984   14.7780 O.3     1  UNL1       -0.4291
     33 C          63.5506   89.3601   15.6515 C.3     1  UNL1        0.2447
     34 C          63.4723   87.9553   16.1717 C.ar    1  UNL1        0.0714
     35 C          64.1078   86.7478   15.5488 C.ar    1  UNL1        0.1053
     36 N          63.7732   85.5576   16.3982 N.ar    1  UNL1       -0.2350
     37 C          62.9308   86.0296   17.5461 C.ar    1  UNL1        0.1343
     38 S          62.7449   87.5114   17.4061 S.2     1  UNL1       -0.0652
     39 C          63.4870   91.1414   10.2321 C.3     1  UNL1        0.0485
     40 C          64.4826   92.0360   10.9090 C.ar    1  UNL1       -0.0204
     41 C          64.9692   91.7077   12.2894 C.ar    1  UNL1       -0.0042
     42 C          65.9649   92.6024   12.9663 C.ar    1  UNL1       -0.0003
     43 C          66.4740   93.8254   12.2627 C.ar    1  UNL1       -0.0000
     44 C          65.9875   94.1537   10.8823 C.ar    1  UNL1       -0.0003
     45 C          64.9918   93.2591   10.2055 C.ar    1  UNL1       -0.0042
     46 C          59.0030   89.6344    7.5864 C.3     1  UNL1        0.0937
     47 C          60.6084   90.0819    5.5934 C.3     1  UNL1        0.0018
     48 C          59.2348   90.1396    6.1932 C.3     1  UNL1        0.0199
     49 C          58.0930   90.7025    5.3999 C.3     1  UNL1        0.0018
@<TRIPOS>BOND
     1    47    48    1
     2    48    49    1
     3    48    46    1
     4    46     1    1
     5     1    23    1
     6    23    24    1
     7    24    25    1
     8    24    27    1
     9    27    39    1
    10    39    40    1
    11    40    41   ar
    12    41    42   ar
    13    42    43   ar
    14    43    44   ar
    15    44    45   ar
    16    27    28    1
    17    28    29   am
    18    29    30    2
    19    29    32    1
    20    32    33    1
    21    33    34    1
    22    34    35   ar
    23    35    36   ar
    24    36    37   ar
    25    37    38   ar
    26     1     2   am
    27     2     3    2
    28     2     4    1
    29     4     5   ar
    30     5     6   ar
    31     6     7   ar
    32     7     8   ar
    33     8     9   ar
    34     9    13    1
    35    13    15    1
    36    15    16    1
    37    16    17    1
    38    17    18    1
    39    18    19   ar
    40    19    20   ar
    41    20    21   ar
    42    21    22   ar
    43     9    10   ar
    44    10    11   ar
    45    11    12   ar
    46    45    40   ar
    47    38    34   ar
    48    12     4   ar
    49    11     7   ar
    50    22    18   ar
    51    25    26    1
    52    28    31    1
    53    13    14    1
@<TRIPOS>MOLECULE
*****
 49 53 0 0 0
SMALL
GASTEIGER

@<TRIPOS>ATOM
      1 N          59.9232   88.5985    8.9375 N.am    1  UNL1       -0.2735
      2 C          59.3763   88.3175    7.5693 C.2     1  UNL1        0.2492
      3 O          58.9741   86.9219    7.1944 O.2     1  UNL1       -0.2699
      4 C          59.2317   89.4322    6.5759 C.ar    1  UNL1        0.0567
      5 C          57.8870   90.0513    6.3339 C.ar    1  UNL1        0.0063
      6 C          57.7424   91.1659    5.3406 C.ar    1  UNL1        0.0225
      7 C          58.9424   91.6614    4.5894 C.ar    1  UNL1        0.1202
      8 N          59.1063   92.7369    3.5566 N.ar    1  UNL1       -0.1948
      9 C          60.5523   92.7825    3.1604 C.ar    1  UNL1        0.2891
     10 O          61.2820   91.7352    3.9482 O.2     1  UNL1       -0.4239
     11 C          60.2870   91.0423    4.8314 C.ar    1  UNL1        0.1662
     12 C          60.4317   89.9277    5.8247 C.ar    1  UNL1        0.0437
     13 N          61.1617   93.7121    2.1531 N.pl3   1  UNL1       -0.2883
     14 H          61.8264   94.3799    2.4385 H       1  UNL1        0.1511
     15 C          60.7583   93.6242    0.7110 C.3     1  UNL1        0.0931
     16 C          61.7008   94.0854   -0.3609 C.3     1  UNL1        0.0458
     17 C          62.2344   93.1051   -1.3629 C.3     1  UNL1        0.1094
     18 N          62.3791   93.5063   -2.8010 N.ar    1  UNL1       -0.3078
     19 C          61.4931   94.4627   -3.5429 C.ar    1  UNL1        0.0980
     20 C          62.0016   94.5690   -4.9501 C.ar    1  UNL1        0.1193
     21 N          63.2017   93.6783   -5.0779 N.ar    1  UNL1       -0.2223
     22 C          63.4350   93.0215   -3.7496 C.ar    1  UNL1        0.1786
     23 C          60.3255   89.9940    9.3124 C.3     1  UNL1        0.1245
     24 C          60.9712   90.2573   10.6405 C.3     1  UNL1        0.1484
     25 O          60.1216   90.4901   11.8545 O.3     1  UNL1       -0.3810
     26 H          59.1848   90.4370   11.6086 H       1  UNL1        0.2105
     27 C          62.4665   90.2876   10.7545 C.3     1  UNL1        0.1075
     28 N          63.2098   89.0629   11.1993 N.am    1  UNL1       -0.2695
     29 C          63.2270   88.6815   12.6499 C.2     1  UNL1        0.4020
     30 O          62.5010   89.5249   13.6557 O.2     1  UNL1       -0.2264
     31 H          63.6863   88.5094   10.5391 H       1  UNL1        0.1528
     32 O          63.9702   87.4569   13.0947 O.3     1  UNL1       -0.4291
     33 C          63.7067   86.8705   14.4499 C.3     1  UNL1        0.2447
     34 C          63.5960   85.3837   14.6152 C.ar    1  UNL1        0.0714
     35 C          62.7967   84.6705   15.6652 C.ar    1  UNL1        0.1053
     36 N          62.9718   83.1952   15.4585 N.ar    1  UNL1       -0.2350
     37 C          63.8793   82.9966   14.2808 C.ar    1  UNL1        0.1343
     38 S          64.2651   84.3492   13.7596 S.2     1  UNL1       -0.0652
     39 C          63.2186   91.5425   10.4238 C.3     1  UNL1        0.0485
     40 C          64.4713   91.8858   11.1739 C.ar    1  UNL1       -0.0204
     41 C          64.5042   91.7749   12.6695 C.ar    1  UNL1       -0.0042
     42 C          65.7570   92.1183   13.4196 C.ar    1  UNL1       -0.0003
     43 C          66.9768   92.5726   12.6743 C.ar    1  UNL1       -0.0000
     44 C          66.9440   92.6835   11.1788 C.ar    1  UNL1       -0.0003
     45 C          65.6913   92.3402   10.4286 C.ar    1  UNL1       -0.0042
     46 C          60.0679   87.4838    9.9308 C.3     1  UNL1        0.0937
     47 C          62.1629   86.5771    8.6903 C.3     1  UNL1        0.0018
     48 C          61.2899   86.6141    9.9095 C.3     1  UNL1        0.0199
     49 C          61.6388   85.7815   11.1074 C.3     1  UNL1        0.0018
@<TRIPOS>BOND
     1    47    48    1
     2    48    49    1
     3    48    46    1
     4    46     1    1
     5     1    23    1
     6    23    24    1
     7    24    25    1
     8    24    27    1
     9    27    39    1
    10    39    40    1
    11    40    41   ar
    12    41    42   ar
    13    42    43   ar
    14    43    44   ar
    15    44    45   ar
    16    27    28    1
    17    28    29   am
    18    29    30    2
    19    29    32    1
    20    32    33    1
    21    33    34    1
    22    34    35   ar
    23    35    36   ar
    24    36    37   ar
    25    37    38   ar
    26     1     2   am
    27     2     3    2
    28     2     4    1
    29     4     5   ar
    30     5     6   ar
    31     6     7   ar
    32     7     8   ar
    33     8     9   ar
    34     9    13    1
    35    13    15    1
    36    15    16    1
    37    16    17    1
    38    17    18    1
    39    18    19   ar
    40    19    20   ar
    41    20    21   ar
    42    21    22   ar
    43     9    10   ar
    44    10    11   ar
    45    11    12   ar
    46    45    40   ar
    47    38    34   ar
    48    12     4   ar
    49    11     7   ar
    50    22    18   ar
    51    25    26    1
    52    28    31    1
    53    13    14    1
@<TRIPOS>MOLECULE
*****
 49 53 0 0 0
SMALL
GASTEIGER

@<TRIPOS>ATOM
      1 N          60.1726   88.6274    8.3141 N.am    1  UNL1       -0.2735
      2 C          60.0295   87.1587    8.0453 C.2     1  UNL1        0.2492
      3 O          58.8103   86.6402    7.3419 O.2     1  UNL1       -0.2699
      4 C          61.1056   86.2083    8.4801 C.ar    1  UNL1        0.0567
      5 C          62.0412   85.6201    7.4659 C.ar    1  UNL1        0.0063
      6 C          63.1173   84.6698    7.9007 C.ar    1  UNL1        0.0225
      7 C          63.2576   84.3077    9.3495 C.ar    1  UNL1        0.1202
      8 N          64.2148   83.4052   10.0704 N.ar    1  UNL1       -0.1948
      9 C          63.8706   83.4357   11.5300 C.ar    1  UNL1        0.2891
     10 O          62.7008   84.3570   11.7113 O.2     1  UNL1       -0.4239
     11 C          62.3220   84.8959   10.3636 C.ar    1  UNL1        0.1662
     12 C          61.2460   85.8462    9.9289 C.ar    1  UNL1        0.0437
     13 N          64.5729   82.6780   12.6176 N.pl3   1  UNL1       -0.2883
     14 H          65.5486   82.5526   12.5791 H       1  UNL1        0.1511
     15 C          63.7886   82.1113   13.7637 C.3     1  UNL1        0.0931
     16 C          63.6878   82.8721   15.0525 C.3     1  UNL1        0.0458
     17 C          64.0518   84.3267   15.0952 C.3     1  UNL1        0.1094
     18 N          63.2662   85.2714   15.9555 N.ar    1  UNL1       -0.3078
     19 C          63.8143   86.4611   16.6865 C.ar    1  UNL1        0.0980
     20 C          62.6814   87.1174   17.4188 C.ar    1  UNL1        0.1193
     21 N          61.4334   86.3332   17.1403 N.ar    1  UNL1       -0.2223
     22 C          61.7949   85.1924   16.2360 C.ar    1  UNL1        0.1786
     23 C          61.3917   89.1459    9.0176 C.3     1  UNL1        0.1245
     24 C          61.2621   90.2418   10.0336 C.3     1  UNL1        0.1484
     25 O          59.9077   90.7814   10.3862 O.3     1  UNL1       -0.3810
     26 H          59.2302   90.3162    9.8710 H       1  UNL1        0.2105
     27 C          62.4871   90.7980   10.6971 C.3     1  UNL1        0.1075
     28 N          62.6719   90.6470   12.1781 N.am    1  UNL1       -0.2695
     29 C          62.9117   89.2895   12.7693 C.2     1  UNL1        0.4020
     30 O          62.9667   88.0830   11.8797 O.2     1  UNL1       -0.2264
     31 H          62.6358   91.4389   12.7619 H       1  UNL1        0.1528
     32 O          63.0966   89.1384   14.2502 O.3     1  UNL1       -0.4291
     33 C          64.4348   89.4107   14.8706 C.3     1  UNL1        0.2447
     34 C          64.6899   90.7185   15.5597 C.ar    1  UNL1        0.0714
     35 C          63.7844   91.3823   16.5544 C.ar    1  UNL1        0.1053
     36 N          64.4301   92.6661   16.9845 N.ar    1  UNL1       -0.2350
     37 C          65.7347   92.7956   16.2557 C.ar    1  UNL1        0.1343
     38 S          65.8953   91.5920   15.3751 S.2     1  UNL1       -0.0652
     39 C          63.5271   91.5052    9.8797 C.3     1  UNL1        0.0485
     40 C          64.5536   92.3660   10.5544 C.ar    1  UNL1       -0.0204
     41 C          65.3211   91.8366   11.7295 C.ar    1  UNL1       -0.0042
     42 C          66.3477   92.6975   12.4042 C.ar    1  UNL1       -0.0003
     43 C          66.6068   94.0876   11.9038 C.ar    1  UNL1       -0.0000
     44 C          65.8393   94.6169   10.7287 C.ar    1  UNL1       -0.0003
     45 C          64.8128   93.7562   10.0540 C.ar    1  UNL1       -0.0042
     46 C          59.0965   89.5778    7.8794 C.3     1  UNL1        0.0937
     47 C          60.3101   90.1594    5.6571 C.3     1  UNL1        0.0018
     48 C          59.0462   90.0545    6.4581 C.3     1  UNL1        0.0199
     49 C          57.7320   90.4264    5.8377 C.3     1  UNL1        0.0018
@<TRIPOS>BOND
     1    47    48    1
     2    48    49    1
     3    48    46    1
     4    46     1    1
     5     1    23    1
     6    23    24    1
     7    24    25    1
     8    24    27    1
     9    27    39    1
    10    39    40    1
    11    40    41   ar
    12    41    42   ar
    13    42    43   ar
    14    43    44   ar
    15    44    45   ar
    16    27    28    1
    17    28    29   am
    18    29    30    2
    19    29    32    1
    20    32    33    1
    21    33    34    1
    22    34    35   ar
    23    35    36   ar
    24    36    37   ar
    25    37    38   ar
    26     1     2   am
    27     2     3    2
    28     2     4    1
    29     4     5   ar
    30     5     6   ar
    31     6     7   ar
    32     7     8   ar
    33     8     9   ar
    34     9    13    1
    35    13    15    1
    36    15    16    1
    37    16    17    1
    38    17    18    1
    39    18    19   ar
    40    19    20   ar
    41    20    21   ar
    42    21    22   ar
    43     9    10   ar
    44    10    11   ar
    45    11    12   ar
    46    45    40   ar
    47    38    34   ar
    48    12     4   ar
    49    11     7   ar
    50    22    18   ar
    51    25    26    1
    52    28    31    1
    53    13    14    1
@<TRIPOS>MOLECULE
*****
 49 53 0 0 0
SMALL
GASTEIGER

@<TRIPOS>ATOM
      1 N          59.9127   88.8041    8.8783 N.am    1  UNL1       -0.2735
      2 C          59.2262   88.5056    7.5785 C.2     1  UNL1        0.2492
      3 O          58.6231   87.1527    7.3422 O.2     1  UNL1       -0.2699
      4 C          59.1428   89.5601    6.5148 C.ar    1  UNL1        0.0567
      5 C          57.8142   90.1519    6.1480 C.ar    1  UNL1        0.0063
      6 C          57.7309   91.2063    5.0844 C.ar    1  UNL1        0.0225
      7 C          58.9761   91.6689    4.3877 C.ar    1  UNL1        0.1202
      8 N          59.2035   92.6848    3.3077 N.ar    1  UNL1       -0.1948
      9 C          60.6726   92.7208    3.0071 C.ar    1  UNL1        0.2891
     10 O          61.3531   91.7272    3.9013 O.2     1  UNL1       -0.4239
     11 C          60.3047   91.0771    4.7545 C.ar    1  UNL1        0.1662
     12 C          60.3880   90.0227    5.8181 C.ar    1  UNL1        0.0437
     13 N          61.3434   93.5967    1.9908 N.pl3   1  UNL1       -0.2883
     14 H          61.3274   94.5753    2.0970 H       1  UNL1        0.1511
     15 C          62.0386   92.9814    0.8126 C.3     1  UNL1        0.0931
     16 C          61.2504   92.5853   -0.4006 C.3     1  UNL1        0.0458
     17 C          61.0133   93.5795   -1.4985 C.3     1  UNL1        0.1094
     18 N          62.1772   94.2343   -2.1816 N.ar    1  UNL1       -0.3078
     19 C          63.4929   93.5864   -2.4967 C.ar    1  UNL1        0.0980
     20 C          64.3586   94.6037   -3.1794 C.ar    1  UNL1        0.1193
     21 N          63.5779   95.8800   -3.2860 N.ar    1  UNL1       -0.2223
     22 C          62.2298   95.6517   -2.6693 C.ar    1  UNL1        0.1786
     23 C          60.5159   90.1570    9.1145 C.3     1  UNL1        0.1245
     24 C          61.1853   90.4618   10.4219 C.3     1  UNL1        0.1484
     25 O          60.3576   90.7483   11.6395 O.3     1  UNL1       -0.3810
     26 H          59.4165   90.6964   11.4103 H       1  UNL1        0.2105
     27 C          62.6825   90.4800   10.5114 C.3     1  UNL1        0.1075
     28 N          63.4089   89.3405   11.1627 N.am    1  UNL1       -0.2695
     29 C          63.0596   88.9307   12.5627 C.2     1  UNL1        0.4020
     30 O          61.9839   89.6604   13.3115 O.2     1  UNL1       -0.2264
     31 H          64.1148   88.8616   10.6712 H       1  UNL1        0.1528
     32 O          63.7858   87.7912   13.2139 O.3     1  UNL1       -0.4291
     33 C          64.1299   87.8568   14.6724 C.3     1  UNL1        0.2447
     34 C          64.0302   89.1600   15.4087 C.ar    1  UNL1        0.0714
     35 C          63.0720   89.4742   16.5191 C.ar    1  UNL1        0.1053
     36 N          63.3208   90.8860   16.9605 N.ar    1  UNL1       -0.2350
     37 C          64.4329   91.4443   16.1228 C.ar    1  UNL1        0.1343
     38 S          64.8713   90.3775   15.1638 S.2     1  UNL1       -0.0652
     39 C          63.4534   91.6377    9.9499 C.3     1  UNL1        0.0485
     40 C          64.4994   92.3171   10.7831 C.ar    1  UNL1       -0.0204
     41 C          65.3265   93.4214   10.1946 C.ar    1  UNL1       -0.0042
     42 C          66.3725   94.1008   11.0279 C.ar    1  UNL1       -0.0003
     43 C          66.5913   93.6760   12.4497 C.ar    1  UNL1       -0.0000
     44 C          65.7641   92.5717   13.0383 C.ar    1  UNL1       -0.0003
     45 C          64.7182   91.8923   12.2050 C.ar    1  UNL1       -0.0042
     46 C          59.9961   87.7496    9.9419 C.3     1  UNL1        0.0937
     47 C          61.4236   85.9728   11.1890 C.3     1  UNL1        0.0018
     48 C          61.1557   86.7984    9.9657 C.3     1  UNL1        0.0199
     49 C          62.0475   86.6729    8.7660 C.3     1  UNL1        0.0018
@<TRIPOS>BOND
     1    47    48    1
     2    48    49    1
     3    48    46    1
     4    46     1    1
     5     1    23    1
     6    23    24    1
     7    24    25    1
     8    24    27    1
     9    27    39    1
    10    39    40    1
    11    40    41   ar
    12    41    42   ar
    13    42    43   ar
    14    43    44   ar
    15    44    45   ar
    16    27    28    1
    17    28    29   am
    18    29    30    2
    19    29    32    1
    20    32    33    1
    21    33    34    1
    22    34    35   ar
    23    35    36   ar
    24    36    37   ar
    25    37    38   ar
    26     1     2   am
    27     2     3    2
    28     2     4    1
    29     4     5   ar
    30     5     6   ar
    31     6     7   ar
    32     7     8   ar
    33     8     9   ar
    34     9    13    1
    35    13    15    1
    36    15    16    1
    37    16    17    1
    38    17    18    1
    39    18    19   ar
    40    19    20   ar
    41    20    21   ar
    42    21    22   ar
    43     9    10   ar
    44    10    11   ar
    45    11    12   ar
    46    45    40   ar
    47    38    34   ar
    48    12     4   ar
    49    11     7   ar
    50    22    18   ar
    51    25    26    1
    52    28    31    1
    53    13    14    1
