@<TRIPOS>MOLECULE
*****
 25 30 0 0 0
SMALL
GASTEIGER

@<TRIPOS>ATOM
      1 C          62.2855   89.6477   10.6263 C.3     1  UNL1        0.1709
      2 N          62.9989   90.1768   11.2642 N.4     1  UNL1        0.3044
      3 C          62.5579   90.5152   10.3226 C.3     1  UNL1        0.1709
      4 C          63.8083   91.4251   11.4553 C.3     1  UNL1        0.0860
      5 C          62.9275   91.2796   10.2500 C.3     1  UNL1        0.0862
      6 C          62.1180   90.0313   10.0589 C.ar    1  UNL1       -0.0116
      7 C          61.2371   89.8858    8.8536 C.ar    1  UNL1        0.0360
      8 C          60.4277   88.6375    8.6625 C.ar    1  UNL1        0.1761
      9 C          60.4990   87.5347    9.6767 C.ar    1  UNL1        0.1763
     10 C          61.3799   87.6803   10.8821 C.ar    1  UNL1        0.0411
     11 C          62.1894   88.9285   11.0732 C.ar    1  UNL1        0.0266
     12 C          63.0703   89.0740   12.2786 C.3     1  UNL1        0.0861
     13 C          63.9511   89.2195   13.4840 C.3     1  UNL1        0.0861
     14 C          64.7606   90.4678   13.6750 C.ar    1  UNL1       -0.0151
     15 C          65.6415   90.6133   14.8804 C.ar    1  UNL1       -0.0063
     16 C          66.4510   91.8616   15.0715 C.ar    1  UNL1        0.0053
     17 C          66.3796   92.9644   14.0572 C.ar    1  UNL1        0.0055
     18 C          65.4988   92.8189   12.8518 C.ar    1  UNL1       -0.0012
     19 C          64.6893   91.5706   12.6608 C.ar    1  UNL1        0.0231
     20 C          67.2857   94.0705   14.5105 C.3     1  UNL1        0.1688
     21 O          67.9171   93.6513   15.8050 O.3     1  UNL1       -0.3443
     22 C          67.4012   92.2861   16.1517 C.3     1  UNL1        0.1688
     23 O          59.5929   86.4287    9.2234 O.3     1  UNL1       -0.4346
     24 C          58.9616   86.8478    7.9290 C.3     1  UNL1        0.4294
     25 O          59.4774   88.2130    7.5823 O.3     1  UNL1       -0.4346
@<TRIPOS>UNITY_ATOM_ATTR
2 1
charge 1
@<TRIPOS>BOND
     1     1     2    1
     2     2     3    1
     3     2     4    1
     4     4     5    1
     5     5     6    1
     6     6     7   ar
     7     7     8   ar
     8     8     9   ar
     9     9    10   ar
    10    10    11   ar
    11    11    12    1
    12    12    13    1
    13    13    14    1
    14    14    15   ar
    15    15    16   ar
    16    16    17   ar
    17    17    18   ar
    18    18    19   ar
    19    17    20    1
    20    20    21    1
    21    21    22    1
    22     9    23    1
    23    23    24    1
    24    24    25    1
    25    12     2    1
    26    19    14   ar
    27    19     4    1
    28    11     6   ar
    29    22    16    1
    30    25     8    1
@<TRIPOS>MOLECULE
*****
 25 30 0 0 0
SMALL
GASTEIGER

@<TRIPOS>ATOM
      1 C          64.6202   91.4240   12.5218 C.3     1  UNL1        0.1709
      2 N          63.8756   90.9356   11.8872 N.4     1  UNL1        0.3044
      3 C          64.3956   91.8811   11.7097 C.3     1  UNL1        0.1709
      4 C          63.0887   91.0079   10.6122 C.3     1  UNL1        0.0860
      5 C          64.0537   92.1020   10.9610 C.3     1  UNL1        0.0862
      6 C          64.8406   92.0298   12.2360 C.ar    1  UNL1       -0.0116
      7 C          65.8056   93.1238   12.5849 C.ar    1  UNL1        0.0360
      8 C          66.5924   93.0515   13.8598 C.ar    1  UNL1        0.1761
      9 C          66.4143   91.8851   14.7860 C.ar    1  UNL1        0.1763
     10 C          65.4493   90.7911   14.4372 C.ar    1  UNL1        0.0411
     11 C          64.6624   90.8634   13.1622 C.ar    1  UNL1        0.0266
     12 C          63.6974   89.7692   12.8133 C.3     1  UNL1        0.0861
     13 C          62.7324   88.6751   12.4645 C.3     1  UNL1        0.0861
     14 C          61.9455   88.7474   11.1895 C.ar    1  UNL1       -0.0151
     15 C          60.9805   87.6533   10.8407 C.ar    1  UNL1       -0.0063
     16 C          60.1936   87.7256    9.5657 C.ar    1  UNL1        0.0053
     17 C          60.3718   88.8920    8.6395 C.ar    1  UNL1        0.0055
     18 C          61.3368   89.9861    8.9883 C.ar    1  UNL1       -0.0012
     19 C          62.1236   89.9137   10.2634 C.ar    1  UNL1        0.0231
     20 C          59.4649   88.6914    7.4617 C.3     1  UNL1        0.1688
     21 O          58.7263   87.4010    7.6599 O.3     1  UNL1       -0.3443
     22 C          59.1766   86.8041    8.9603 C.3     1  UNL1        0.1688
     23 O          67.3212   92.0858   15.9638 O.3     1  UNL1       -0.4346
     24 C          68.0598   93.3762   15.7656 C.3     1  UNL1        0.4294
     25 O          67.6094   93.9730   14.4653 O.3     1  UNL1       -0.4346
@<TRIPOS>UNITY_ATOM_ATTR
2 1
charge 1
@<TRIPOS>BOND
     1     1     2    1
     2     2     3    1
     3     2     4    1
     4     4     5    1
     5     5     6    1
     6     6     7   ar
     7     7     8   ar
     8     8     9   ar
     9     9    10   ar
    10    10    11   ar
    11    11    12    1
    12    12    13    1
    13    13    14    1
    14    14    15   ar
    15    15    16   ar
    16    16    17   ar
    17    17    18   ar
    18    18    19   ar
    19    17    20    1
    20    20    21    1
    21    21    22    1
    22     9    23    1
    23    23    24    1
    24    24    25    1
    25    12     2    1
    26    19    14   ar
    27    19     4    1
    28    11     6   ar
    29    22    16    1
    30    25     8    1
@<TRIPOS>MOLECULE
*****
 25 30 0 0 0
SMALL
GASTEIGER

@<TRIPOS>ATOM
      1 C          64.5433   90.9437   13.0742 C.3     1  UNL1        0.1709
      2 N          63.8032   90.4493   12.4390 N.4     1  UNL1        0.3044
      3 C          64.1917   90.1155   13.4051 C.3     1  UNL1        0.1709
      4 C          62.8961   89.2658   12.2763 C.3     1  UNL1        0.0860
      5 C          63.7573   89.3883   13.4983 C.3     1  UNL1        0.0862
      6 C          64.6644   90.5718   13.6610 C.ar    1  UNL1       -0.0116
      7 C          65.5256   90.6943   14.8830 C.ar    1  UNL1        0.0360
      8 C          66.4327   91.8778   15.0457 C.ar    1  UNL1        0.1761
      9 C          66.4787   92.9388   13.9863 C.ar    1  UNL1        0.1763
     10 C          65.6175   92.8163   12.7643 C.ar    1  UNL1        0.0411
     11 C          64.7104   91.6328   12.6017 C.ar    1  UNL1        0.0266
     12 C          63.8491   91.5103   11.3796 C.3     1  UNL1        0.0861
     13 C          62.9880   91.3878   10.1575 C.3     1  UNL1        0.0861
     14 C          62.0808   90.2042    9.9949 C.ar    1  UNL1       -0.0151
     15 C          61.2197   90.0817    8.7728 C.ar    1  UNL1       -0.0063
     16 C          60.3125   88.8983    8.6102 C.ar    1  UNL1        0.0053
     17 C          60.2666   87.8373    9.6695 C.ar    1  UNL1        0.0055
     18 C          61.1277   87.9597   10.8915 C.ar    1  UNL1       -0.0012
     19 C          62.0349   89.1433   11.0542 C.ar    1  UNL1        0.0231
     20 C          59.2814   86.7923    9.2365 C.3     1  UNL1        0.1688
     21 O          58.7185   87.2074    7.9096 O.3     1  UNL1       -0.3443
     22 C          59.3558   88.5090    7.5225 C.3     1  UNL1        0.1688
     23 O          67.4638   93.9837   14.4193 O.3     1  UNL1       -0.4346
     24 C          68.0267   93.5687   15.7462 C.3     1  UNL1        0.4294
     25 O          67.3895   92.2671   16.1333 O.3     1  UNL1       -0.4346
@<TRIPOS>UNITY_ATOM_ATTR
2 1
charge 1
@<TRIPOS>BOND
     1     1     2    1
     2     2     3    1
     3     2     4    1
     4     4     5    1
     5     5     6    1
     6     6     7   ar
     7     7     8   ar
     8     8     9   ar
     9     9    10   ar
    10    10    11   ar
    11    11    12    1
    12    12    13    1
    13    13    14    1
    14    14    15   ar
    15    15    16   ar
    16    16    17   ar
    17    17    18   ar
    18    18    19   ar
    19    17    20    1
    20    20    21    1
    21    21    22    1
    22     9    23    1
    23    23    24    1
    24    24    25    1
    25    12     2    1
    26    19    14   ar
    27    19     4    1
    28    11     6   ar
    29    22    16    1
    30    25     8    1
@<TRIPOS>MOLECULE
*****
 25 30 0 0 0
SMALL
GASTEIGER

@<TRIPOS>ATOM
      1 C          62.4045   89.1468   11.0497 C.3     1  UNL1        0.1709
      2 N          63.1227   89.6697   11.6872 N.4     1  UNL1        0.3044
      3 C          62.7001   88.6710   11.8277 C.3     1  UNL1        0.1709
      4 C          63.9585   89.6056   12.9311 C.3     1  UNL1        0.0860
      5 C          63.0880   88.4445   12.5518 C.3     1  UNL1        0.0862
      6 C          62.2522   88.5086   11.3079 C.ar    1  UNL1       -0.0116
      7 C          61.3816   87.3475   10.9286 C.ar    1  UNL1        0.0360
      8 C          60.5458   87.4116    9.6847 C.ar    1  UNL1        0.1761
      9 C          60.5806   88.6368    8.8201 C.ar    1  UNL1        0.1763
     10 C          61.4511   89.7979    9.1994 C.ar    1  UNL1        0.0411
     11 C          62.2869   89.7338   10.4433 C.ar    1  UNL1        0.0266
     12 C          63.1575   90.8950   10.8226 C.3     1  UNL1        0.0861
     13 C          64.0280   92.0562   11.2019 C.3     1  UNL1        0.0861
     14 C          64.8639   91.9920   12.4459 C.ar    1  UNL1       -0.0151
     15 C          65.7344   93.1532   12.8252 C.ar    1  UNL1       -0.0063
     16 C          66.5702   93.0891   14.0691 C.ar    1  UNL1        0.0053
     17 C          66.5355   91.8638   14.9337 C.ar    1  UNL1        0.0055
     18 C          65.6649   90.7027   14.5544 C.ar    1  UNL1       -0.0012
     19 C          64.8291   90.7668   13.3104 C.ar    1  UNL1        0.0231
     20 C          67.4617   92.0876   16.0922 C.3     1  UNL1        0.1688
     21 O          68.0688   93.4511   15.9435 O.3     1  UNL1       -0.3443
     22 C          67.5179   94.0701   14.6932 C.3     1  UNL1        0.1688
     23 O          59.6544   88.4130    7.6617 O.3     1  UNL1       -0.4346
     24 C          59.0472   87.0495    7.8102 C.3     1  UNL1        0.4294
     25 O          59.5982   86.4306    9.0606 O.3     1  UNL1       -0.4346
@<TRIPOS>UNITY_ATOM_ATTR
2 1
charge 1
@<TRIPOS>BOND
     1     1     2    1
     2     2     3    1
     3     2     4    1
     4     4     5    1
     5     5     6    1
     6     6     7   ar
     7     7     8   ar
     8     8     9   ar
     9     9    10   ar
    10    10    11   ar
    11    11    12    1
    12    12    13    1
    13    13    14    1
    14    14    15   ar
    15    15    16   ar
    16    16    17   ar
    17    17    18   ar
    18    18    19   ar
    19    17    20    1
    20    20    21    1
    21    21    22    1
    22     9    23    1
    23    23    24    1
    24    24    25    1
    25    12     2    1
    26    19    14   ar
    27    19     4    1
    28    11     6   ar
    29    22    16    1
    30    25     8    1
@<TRIPOS>MOLECULE
*****
 25 30 0 0 0
SMALL
GASTEIGER

@<TRIPOS>ATOM
      1 C          63.1432   84.1422   13.0833 C.3     1  UNL1        0.1709
      2 N          63.3116   85.2226   13.0801 N.4     1  UNL1        0.3044
      3 C          62.8314   84.6137   12.3091 C.3     1  UNL1        0.1709
      4 C          63.1365   86.5062   12.3239 C.3     1  UNL1        0.0860
      5 C          62.6416   85.2171   11.7380 C.3     1  UNL1        0.0862
      6 C          62.8166   83.9335   12.4942 C.ar    1  UNL1       -0.0116
      7 C          62.3217   82.6444   11.9084 C.ar    1  UNL1        0.0360
      8 C          62.4967   81.3608   12.6646 C.ar    1  UNL1        0.1761
      9 C          63.1667   81.3663   14.0066 C.ar    1  UNL1        0.1763
     10 C          63.6616   82.6555   14.5924 C.ar    1  UNL1        0.0411
     11 C          63.4866   83.9390   13.8363 C.ar    1  UNL1        0.0266
     12 C          63.9816   85.2282   14.4222 C.3     1  UNL1        0.0861
     13 C          64.4765   86.5173   15.0081 C.3     1  UNL1        0.0861
     14 C          64.3015   87.8009   14.2518 C.ar    1  UNL1       -0.0151
     15 C          64.7964   89.0899   14.8377 C.ar    1  UNL1       -0.0063
     16 C          64.6214   90.3735   14.0815 C.ar    1  UNL1        0.0053
     17 C          63.9514   90.3680   12.7395 C.ar    1  UNL1        0.0055
     18 C          63.4565   89.0789   12.1536 C.ar    1  UNL1       -0.0012
     19 C          63.6315   87.7953   12.9098 C.ar    1  UNL1        0.0231
     20 C          63.9201   91.7789   12.2312 C.3     1  UNL1        0.1688
     21 O          64.5706   92.6564   13.2591 O.3     1  UNL1       -0.3443
     22 C          65.0041   91.7878   14.4027 C.3     1  UNL1        0.1688
     23 O          63.1980   79.9555   14.5148 O.3     1  UNL1       -0.4346
     24 C          62.5475   79.0779   13.4869 C.3     1  UNL1        0.4294
     25 O          62.1140   79.9465   12.3434 O.3     1  UNL1       -0.4346
@<TRIPOS>UNITY_ATOM_ATTR
2 1
charge 1
@<TRIPOS>BOND
     1     1     2    1
     2     2     3    1
     3     2     4    1
     4     4     5    1
     5     5     6    1
     6     6     7   ar
     7     7     8   ar
     8     8     9   ar
     9     9    10   ar
    10    10    11   ar
    11    11    12    1
    12    12    13    1
    13    13    14    1
    14    14    15   ar
    15    15    16   ar
    16    16    17   ar
    17    17    18   ar
    18    18    19   ar
    19    17    20    1
    20    20    21    1
    21    21    22    1
    22     9    23    1
    23    23    24    1
    24    24    25    1
    25    12     2    1
    26    19    14   ar
    27    19     4    1
    28    11     6   ar
    29    22    16    1
    30    25     8    1
@<TRIPOS>MOLECULE
*****
 25 30 0 0 0
SMALL
GASTEIGER

@<TRIPOS>ATOM
      1 C          63.5628   84.9245   13.9110 C.3     1  UNL1        0.1709
      2 N          63.8236   85.9861   13.9370 N.4     1  UNL1        0.3044
      3 C          64.0589   85.2167   14.6775 C.3     1  UNL1        0.1709
      4 C          64.5055   87.0807   14.7029 C.3     1  UNL1        0.0860
      5 C          64.4861   85.6835   15.2482 C.3     1  UNL1        0.0862
      6 C          63.8041   84.5889   14.4823 C.ar    1  UNL1       -0.0116
      7 C          63.7847   83.1917   15.0275 C.ar    1  UNL1        0.0360
      8 C          63.1027   82.0970   14.2615 C.ar    1  UNL1        0.1761
      9 C          62.4401   82.3996   12.9503 C.ar    1  UNL1        0.1763
     10 C          62.4596   83.7969   12.4050 C.ar    1  UNL1        0.0411
     11 C          63.1416   84.8915   13.1710 C.ar    1  UNL1        0.0266
     12 C          63.1610   86.2888   12.6257 C.3     1  UNL1        0.0861
     13 C          63.1804   87.6860   12.0803 C.3     1  UNL1        0.0861
     14 C          63.8624   88.7806   12.8464 C.ar    1  UNL1       -0.0151
     15 C          63.8819   90.1779   12.3011 C.ar    1  UNL1       -0.0063
     16 C          64.5638   91.2725   13.0671 C.ar    1  UNL1        0.0053
     17 C          65.2264   90.9699   14.3783 C.ar    1  UNL1        0.0055
     18 C          65.2070   89.5726   14.9236 C.ar    1  UNL1       -0.0012
     19 C          64.5250   88.4780   14.1576 C.ar    1  UNL1        0.0231
     20 C          65.8163   92.2446   14.9047 C.3     1  UNL1        0.1688
     21 O          65.5183   93.3350   13.9188 O.3     1  UNL1       -0.3443
     22 C          64.7442   92.7342   12.7830 C.3     1  UNL1        0.1688
     23 O          61.8503   81.1249   12.4239 O.3     1  UNL1       -0.4346
     24 C          62.1482   80.0345   13.4098 C.3     1  UNL1        0.4294
     25 O          62.9223   80.6353   14.5456 O.3     1  UNL1       -0.4346
@<TRIPOS>UNITY_ATOM_ATTR
2 1
charge 1
@<TRIPOS>BOND
     1     1     2    1
     2     2     3    1
     3     2     4    1
     4     4     5    1
     5     5     6    1
     6     6     7   ar
     7     7     8   ar
     8     8     9   ar
     9     9    10   ar
    10    10    11   ar
    11    11    12    1
    12    12    13    1
    13    13    14    1
    14    14    15   ar
    15    15    16   ar
    16    16    17   ar
    17    17    18   ar
    18    18    19   ar
    19    17    20    1
    20    20    21    1
    21    21    22    1
    22     9    23    1
    23    23    24    1
    24    24    25    1
    25    12     2    1
    26    19    14   ar
    27    19     4    1
    28    11     6   ar
    29    22    16    1
    30    25     8    1
@<TRIPOS>MOLECULE
*****
 25 30 0 0 0
SMALL
GASTEIGER

@<TRIPOS>ATOM
      1 C          63.0835   83.9600   13.0189 C.3     1  UNL1        0.1709
      2 N          63.1421   85.0329   12.8160 N.4     1  UNL1        0.3044
      3 C          63.4611   84.4994   13.7156 C.3     1  UNL1        0.1709
      4 C          63.5543   86.3768   13.3396 C.3     1  UNL1        0.0860
      5 C          63.7531   85.1509   14.1808 C.3     1  UNL1        0.0862
      6 C          63.3409   83.8071   13.6573 C.ar    1  UNL1       -0.0116
      7 C          63.5397   82.5812   14.4985 C.ar    1  UNL1        0.0360
      8 C          63.1274   81.2373   13.9750 C.ar    1  UNL1        0.1761
      9 C          62.5164   81.1193   12.6102 C.ar    1  UNL1        0.1763
     10 C          62.3176   82.3452   11.7690 C.ar    1  UNL1        0.0411
     11 C          62.7298   83.6891   12.2925 C.ar    1  UNL1        0.0266
     12 C          62.5310   84.9150   11.4512 C.3     1  UNL1        0.0861
     13 C          62.3322   86.1408   10.6099 C.3     1  UNL1        0.0861
     14 C          62.7445   87.4847   11.1335 C.ar    1  UNL1       -0.0151
     15 C          62.5456   88.7106   10.2923 C.ar    1  UNL1       -0.0063
     16 C          62.9579   90.0544   10.8158 C.ar    1  UNL1        0.0053
     17 C          63.5689   90.1724   12.1806 C.ar    1  UNL1        0.0055
     18 C          63.7678   88.9466   13.0219 C.ar    1  UNL1       -0.0012
     19 C          63.3555   87.6027   12.4983 C.ar    1  UNL1        0.0231
     20 C          63.8750   91.6199   12.4279 C.3     1  UNL1        0.1688
     21 O          63.4530   92.3965   11.2160 O.3     1  UNL1       -0.3443
     22 C          62.8862   91.4290   10.2196 C.3     1  UNL1        0.1688
     23 O          62.2104   79.6719   12.3629 O.3     1  UNL1       -0.4346
     24 C          62.6323   78.8953   13.5748 C.3     1  UNL1        0.4294
     25 O          63.1991   79.8628   14.5712 O.3     1  UNL1       -0.4346
@<TRIPOS>UNITY_ATOM_ATTR
2 1
charge 1
@<TRIPOS>BOND
     1     1     2    1
     2     2     3    1
     3     2     4    1
     4     4     5    1
     5     5     6    1
     6     6     7   ar
     7     7     8   ar
     8     8     9   ar
     9     9    10   ar
    10    10    11   ar
    11    11    12    1
    12    12    13    1
    13    13    14    1
    14    14    15   ar
    15    15    16   ar
    16    16    17   ar
    17    17    18   ar
    18    18    19   ar
    19    17    20    1
    20    20    21    1
    21    21    22    1
    22     9    23    1
    23    23    24    1
    24    24    25    1
    25    12     2    1
    26    19    14   ar
    27    19     4    1
    28    11     6   ar
    29    22    16    1
    30    25     8    1
