@<TRIPOS>MOLECULE
*****
 29 32 0 0 0
SMALL
GASTEIGER

@<TRIPOS>ATOM
      1 O          62.7296   90.9568    9.9242 O.2     1  UNL1       -0.2739
      2 C          62.6196   90.1186   11.1632 C.2     1  UNL1        0.2419
      3 N          63.5198   90.3869   12.3326 N.am    1  UNL1       -0.2581
      4 C          63.5257   89.6361   13.6312 C.3     1  UNL1        0.1029
      5 C          64.5817   90.2383   14.5099 C.3     1  UNL1        0.0494
      6 C          65.2286   91.3612   13.7544 C.ar    1  UNL1       -0.0029
      7 C          64.5723   91.4530   12.4088 C.ar    1  UNL1        0.0498
      8 C          65.0178   92.4955   11.4266 C.ar    1  UNL1        0.0146
      9 C          66.1195   93.4462   11.7901 C.ar    1  UNL1        0.0012
     10 C          66.7759   93.3544   13.1358 C.ar    1  UNL1        0.0036
     11 C          66.3304   92.3118   14.1180 C.ar    1  UNL1        0.0687
     12 C          66.9867   92.2200   15.4636 C.3     1  UNL1        0.4183
     13 F          67.6430   92.1282   16.8093 F       1  UNL1       -0.1659
     14 F          65.7942   92.8798   16.0902 F       1  UNL1       -0.1659
     15 F          68.1792   91.5603   14.8370 F       1  UNL1       -0.1659
     16 C          61.6092   89.0120   11.2327 C.3     1  UNL1        0.2068
     17 C          62.0139   87.6053   10.9051 C.2     1  UNL1        0.3580
     18 N          62.3320   86.6402   12.0085 N.2     1  UNL1       -0.0039
     19 C          62.7367   85.2334   11.6809 C.2     1  UNL1        0.3159
     20 C          62.8233   84.7919   10.2499 C.3     1  UNL1        0.2333
     21 C          62.5052   85.7569    9.1466 C.2     1  UNL1        0.3644
     22 O          62.5918   85.3154    7.7157 O.2     1  UNL1       -0.2422
     23 N          62.1005   87.1637    9.4742 N.am    1  UNL1        0.0289
     24 N          63.0549   84.2682   12.7842 N.pl3   1  UNL1       -0.1888
     25 C          62.7239   82.8137   12.6269 C.3     1  UNL1        0.2343
     26 C          63.0420   81.8485   13.7301 C.3     1  UNL1        0.1929
     27 O          63.6910   82.3379   14.9908 O.3     1  UNL1       -0.3449
     28 C          64.0220   83.7925   15.1481 C.3     1  UNL1        0.1929
     29 C          63.7039   84.7577   14.0449 C.3     1  UNL1        0.2343
@<TRIPOS>BOND
     1     1     2    2
     2     2    16    1
     3    16    17    1
     4    17    18    1
     5    18    19    2
     6    19    24    1
     7    24    25    1
     8    25    26    1
     9    26    27    1
    10    27    28    1
    11    28    29    1
    12    19    20    1
    13    20    21    1
    14    21    22    2
    15    21    23    1
    16     2     3   am
    17     3     4    1
    18     4     5    1
    19     5     6    1
    20     6     7   ar
    21     7     8   ar
    22     8     9   ar
    23     9    10   ar
    24    10    11   ar
    25    11    12    1
    26    12    13    1
    27    12    14    1
    28    12    15    1
    29    23    17    2
    30     7     3    1
    31    29    24    1
    32    11     6   ar
@<TRIPOS>MOLECULE
*****
 29 32 0 0 0
SMALL
GASTEIGER

@<TRIPOS>ATOM
      1 O          63.8543   88.0388   13.3069 O.2     1  UNL1       -0.2739
      2 C          63.0330   89.2660   13.0438 C.2     1  UNL1        0.2419
      3 N          62.0928   89.3030   11.8756 N.am    1  UNL1       -0.2581
      4 C          61.2121   90.4540   11.4888 C.3     1  UNL1        0.1029
      5 C          60.4433   90.0578   10.2633 C.3     1  UNL1        0.0494
      6 C          60.8488   88.6620    9.8926 C.ar    1  UNL1       -0.0029
      7 C          61.8683   88.1955   10.8891 C.ar    1  UNL1        0.0498
      8 C          62.4604   86.8226   10.7695 C.ar    1  UNL1        0.0146
      9 C          62.0331   85.9162    9.6534 C.ar    1  UNL1        0.0012
     10 C          61.0136   86.3827    8.6569 C.ar    1  UNL1        0.0036
     11 C          60.4214   87.7556    8.7765 C.ar    1  UNL1        0.0687
     12 C          59.4019   88.2221    7.7801 C.3     1  UNL1        0.4183
     13 F          58.3825   88.6886    6.7836 F       1  UNL1       -0.1659
     14 F          58.5475   87.0305    8.0964 F       1  UNL1       -0.1659
     15 F          60.2564   89.4137    7.4637 F       1  UNL1       -0.1659
     16 C          63.1519   90.4563   13.9489 C.3     1  UNL1        0.2068
     17 C          64.3847   91.3100   13.9073 C.2     1  UNL1        0.3580
     18 N          64.9373   91.7654   12.5893 N.2     1  UNL1       -0.0039
     19 C          66.1701   92.6190   12.5477 C.2     1  UNL1        0.3159
     20 C          66.8500   93.0172   13.8240 C.3     1  UNL1        0.2333
     21 C          66.2974   92.5617   15.1420 C.2     1  UNL1        0.3644
     22 O          66.9773   92.9599   16.4184 O.2     1  UNL1       -0.2422
     23 N          65.0646   91.7081   15.1836 N.am    1  UNL1        0.0289
     24 N          66.7228   93.0745   11.2297 N.pl3   1  UNL1       -0.1888
     25 C          66.2829   94.3834   10.6439 C.3     1  UNL1        0.2343
     26 C          66.8356   94.8390    9.3260 C.3     1  UNL1        0.1929
     27 O          67.8282   93.9854    8.5938 O.3     1  UNL1       -0.3449
     28 C          68.2682   92.6765    9.1795 C.3     1  UNL1        0.1929
     29 C          67.7155   92.2210   10.4974 C.3     1  UNL1        0.2343
@<TRIPOS>BOND
     1     1     2    2
     2     2    16    1
     3    16    17    1
     4    17    18    1
     5    18    19    2
     6    19    24    1
     7    24    25    1
     8    25    26    1
     9    26    27    1
    10    27    28    1
    11    28    29    1
    12    19    20    1
    13    20    21    1
    14    21    22    2
    15    21    23    1
    16     2     3   am
    17     3     4    1
    18     4     5    1
    19     5     6    1
    20     6     7   ar
    21     7     8   ar
    22     8     9   ar
    23     9    10   ar
    24    10    11   ar
    25    11    12    1
    26    12    13    1
    27    12    14    1
    28    12    15    1
    29    23    17    2
    30     7     3    1
    31    29    24    1
    32    11     6   ar
@<TRIPOS>MOLECULE
*****
 29 32 0 0 0
SMALL
GASTEIGER

@<TRIPOS>ATOM
      1 O          62.2206   89.7834   14.0973 O.2     1  UNL1       -0.2739
      2 C          62.0560   90.1015   12.6407 C.2     1  UNL1        0.2419
      3 N          63.1197   90.8721   11.9163 N.am    1  UNL1       -0.2581
      4 C          63.0942   91.2622   10.4682 C.3     1  UNL1        0.1029
      5 C          64.3544   92.0190   10.1698 C.3     1  UNL1        0.0494
      6 C          65.1588   92.0966   11.4335 C.ar    1  UNL1       -0.0029
      7 C          64.3957   91.3877   12.5129 C.ar    1  UNL1        0.0498
      8 C          64.9613   91.3034   13.8996 C.ar    1  UNL1        0.0146
      9 C          66.2900   91.9279   14.2069 C.ar    1  UNL1        0.0012
     10 C          67.0531   92.6368   13.1274 C.ar    1  UNL1        0.0036
     11 C          66.4875   92.7211   11.7408 C.ar    1  UNL1        0.0687
     12 C          67.2507   93.4300   10.6613 C.3     1  UNL1        0.4183
     13 F          68.0138   94.1388    9.5819 F       1  UNL1       -0.1659
     14 F          67.8678   92.1284   10.2429 F       1  UNL1       -0.1659
     15 F          66.6335   94.7315   11.0797 F       1  UNL1       -0.1659
     16 C          60.8274   89.6490   11.9085 C.3     1  UNL1        0.2068
     17 C          60.8780   88.4242   11.0441 C.2     1  UNL1        0.3580
     18 N          61.8040   87.2972   11.3939 N.2     1  UNL1       -0.0039
     19 C          61.8546   86.0723   10.5296 C.2     1  UNL1        0.3159
     20 C          60.9792   85.9745    9.3154 C.3     1  UNL1        0.2333
     21 C          60.0532   87.1015    8.9656 C.2     1  UNL1        0.3644
     22 O          59.1778   87.0036    7.7515 O.2     1  UNL1       -0.2422
     23 N          60.0026   88.3263    9.8300 N.am    1  UNL1        0.0289
     24 N          62.7806   84.9452   10.8794 N.pl3   1  UNL1       -0.1888
     25 C          63.3982   84.1170    9.7919 C.3     1  UNL1        0.2343
     26 C          64.3242   82.9899   10.1416 C.3     1  UNL1        0.1929
     27 O          64.6325   82.6911   11.5788 O.3     1  UNL1       -0.3449
     28 C          64.0149   83.5194   12.6663 C.3     1  UNL1        0.1929
     29 C          63.0889   84.6464   12.3166 C.3     1  UNL1        0.2343
@<TRIPOS>BOND
     1     1     2    2
     2     2    16    1
     3    16    17    1
     4    17    18    1
     5    18    19    2
     6    19    24    1
     7    24    25    1
     8    25    26    1
     9    26    27    1
    10    27    28    1
    11    28    29    1
    12    19    20    1
    13    20    21    1
    14    21    22    2
    15    21    23    1
    16     2     3   am
    17     3     4    1
    18     4     5    1
    19     5     6    1
    20     6     7   ar
    21     7     8   ar
    22     8     9   ar
    23     9    10   ar
    24    10    11   ar
    25    11    12    1
    26    12    13    1
    27    12    14    1
    28    12    15    1
    29    23    17    2
    30     7     3    1
    31    29    24    1
    32    11     6   ar
@<TRIPOS>MOLECULE
*****
 29 32 0 0 0
SMALL
GASTEIGER

@<TRIPOS>ATOM
      1 O          63.0852   89.0782   13.7282 O.2     1  UNL1       -0.2739
      2 C          62.8725   89.5447   12.3186 C.2     1  UNL1        0.2419
      3 N          63.6278   90.7321   11.7995 N.am    1  UNL1       -0.2581
      4 C          63.5202   91.3112   10.4200 C.3     1  UNL1        0.1029
      5 C          64.4493   92.4859   10.3367 C.3     1  UNL1        0.0494
      6 C          65.1311   92.6328   11.6647 C.ar    1  UNL1       -0.0029
      7 C          64.6234   91.5489   12.5688 C.ar    1  UNL1        0.0498
      8 C          65.1331   91.4457   13.9757 C.ar    1  UNL1        0.0146
      9 C          66.1506   92.4264   14.4785 C.ar    1  UNL1        0.0012
     10 C          66.6583   93.5103   13.5744 C.ar    1  UNL1        0.0036
     11 C          66.1485   93.6135   12.1675 C.ar    1  UNL1        0.0687
     12 C          66.6562   94.6974   11.2634 C.3     1  UNL1        0.4183
     13 F          67.1639   95.7814   10.3594 F       1  UNL1       -0.1659
     14 F          65.9816   95.7277   12.1198 F       1  UNL1       -0.1659
     15 F          67.3309   93.6672   10.4071 F       1  UNL1       -0.1659
     16 C          61.9044   88.8237   11.4280 C.3     1  UNL1        0.2068
     17 C          62.1837   87.4123   11.0037 C.2     1  UNL1        0.3580
     18 N          62.3772   86.3428   12.0375 N.2     1  UNL1       -0.0039
     19 C          62.6565   84.9315   11.6131 C.2     1  UNL1        0.3159
     20 C          62.7423   84.5897   10.1551 C.3     1  UNL1        0.2333
     21 C          62.5488   85.6592    9.1214 C.2     1  UNL1        0.3644
     22 O          62.6346   85.3174    7.6634 O.2     1  UNL1       -0.2422
     23 N          62.2695   87.0705    9.5457 N.am    1  UNL1        0.0289
     24 N          62.8500   83.8618   12.6469 N.pl3   1  UNL1       -0.1888
     25 C          62.6187   84.1694   14.0967 C.3     1  UNL1        0.2343
     26 C          62.8122   83.0999   15.1305 C.3     1  UNL1        0.1929
     27 O          63.2370   81.7227   14.7143 O.3     1  UNL1       -0.3449
     28 C          63.4683   81.4152   13.2646 C.3     1  UNL1        0.1929
     29 C          63.2748   82.4847   12.2308 C.3     1  UNL1        0.2343
@<TRIPOS>BOND
     1     1     2    2
     2     2    16    1
     3    16    17    1
     4    17    18    1
     5    18    19    2
     6    19    24    1
     7    24    25    1
     8    25    26    1
     9    26    27    1
    10    27    28    1
    11    28    29    1
    12    19    20    1
    13    20    21    1
    14    21    22    2
    15    21    23    1
    16     2     3   am
    17     3     4    1
    18     4     5    1
    19     5     6    1
    20     6     7   ar
    21     7     8   ar
    22     8     9   ar
    23     9    10   ar
    24    10    11   ar
    25    11    12    1
    26    12    13    1
    27    12    14    1
    28    12    15    1
    29    23    17    2
    30     7     3    1
    31    29    24    1
    32    11     6   ar
@<TRIPOS>MOLECULE
*****
 29 32 0 0 0
SMALL
GASTEIGER

@<TRIPOS>ATOM
      1 O          62.5298   89.9714   11.8855 O.2     1  UNL1       -0.2739
      2 C          63.2606   89.5493   13.1255 C.2     1  UNL1        0.2419
      3 N          63.5112   88.0942   13.3898 N.am    1  UNL1       -0.2581
      4 C          64.2242   87.5243   14.5801 C.3     1  UNL1        0.1029
      5 C          64.2465   86.0314   14.4360 C.3     1  UNL1        0.0494
      6 C          63.5474   85.6786   13.1566 C.ar    1  UNL1       -0.0029
      7 C          63.0930   86.9535   12.5100 C.ar    1  UNL1        0.0498
      8 C          62.3570   86.9111   11.2037 C.ar    1  UNL1        0.0146
      9 C          62.0755   85.5937   10.5440 C.ar    1  UNL1        0.0012
     10 C          62.5299   84.3188   11.1906 C.ar    1  UNL1        0.0036
     11 C          63.2659   84.3613   12.4969 C.ar    1  UNL1        0.0687
     12 C          63.7203   83.0864   13.1435 C.3     1  UNL1        0.4183
     13 F          64.1747   81.8115   13.7902 F       1  UNL1       -0.1659
     14 F          64.8556   82.9959   12.1674 F       1  UNL1       -0.1659
     15 F          62.5850   83.1768   14.1197 F       1  UNL1       -0.1659
     16 C          63.7407   90.5824   14.1014 C.3     1  UNL1        0.2068
     17 C          65.0742   91.2399   13.9022 C.2     1  UNL1        0.3580
     18 N          65.4237   91.8388   12.5722 N.2     1  UNL1       -0.0039
     19 C          66.7571   92.4963   12.3730 C.2     1  UNL1        0.3159
     20 C          67.7410   92.5548   13.5038 C.3     1  UNL1        0.2333
     21 C          67.3914   91.9558   14.8338 C.2     1  UNL1        0.3644
     22 O          68.3752   92.0143   15.9646 O.2     1  UNL1       -0.2422
     23 N          66.0580   91.2983   15.0330 N.am    1  UNL1        0.0289
     24 N          67.1068   93.0953   11.0429 N.pl3   1  UNL1       -0.1888
     25 C          67.9685   92.3332   10.0803 C.3     1  UNL1        0.2343
     26 C          68.3182   92.9321    8.7503 C.3     1  UNL1        0.1929
     27 O          67.8060   94.2933    8.3829 O.3     1  UNL1       -0.3449
     28 C          66.9443   95.0554    9.3454 C.3     1  UNL1        0.1929
     29 C          66.5946   94.4565   10.6754 C.3     1  UNL1        0.2343
@<TRIPOS>BOND
     1     1     2    2
     2     2    16    1
     3    16    17    1
     4    17    18    1
     5    18    19    2
     6    19    24    1
     7    24    25    1
     8    25    26    1
     9    26    27    1
    10    27    28    1
    11    28    29    1
    12    19    20    1
    13    20    21    1
    14    21    22    2
    15    21    23    1
    16     2     3   am
    17     3     4    1
    18     4     5    1
    19     5     6    1
    20     6     7   ar
    21     7     8   ar
    22     8     9   ar
    23     9    10   ar
    24    10    11   ar
    25    11    12    1
    26    12    13    1
    27    12    14    1
    28    12    15    1
    29    23    17    2
    30     7     3    1
    31    29    24    1
    32    11     6   ar
@<TRIPOS>MOLECULE
*****
 29 32 0 0 0
SMALL
GASTEIGER

@<TRIPOS>ATOM
      1 O          62.2272   90.4399   11.5405 O.2     1  UNL1       -0.2739
      2 C          62.8333   89.7008   12.6964 C.2     1  UNL1        0.2419
      3 N          63.0564   88.2202   12.6061 N.am    1  UNL1       -0.2581
      4 C          63.6496   87.3511   13.6751 C.3     1  UNL1        0.1029
      5 C          63.6853   85.9426   13.1605 C.3     1  UNL1        0.0494
      6 C          63.1142   85.9412   11.7735 C.ar    1  UNL1       -0.0029
      7 C          62.7255   87.3488   11.4308 C.ar    1  UNL1        0.0498
      8 C          62.1205   87.6553   10.0929 C.ar    1  UNL1        0.0146
      9 C          61.9042   86.5542    9.0977 C.ar    1  UNL1        0.0012
     10 C          62.2929   85.1465    9.4403 C.ar    1  UNL1        0.0036
     11 C          62.8979   84.8400   10.7782 C.ar    1  UNL1        0.0687
     12 C          63.2865   83.4323   11.1209 C.3     1  UNL1        0.4183
     13 F          63.6752   82.0247   11.4635 F       1  UNL1       -0.1659
     14 F          64.4229   83.5085   10.1447 F       1  UNL1       -0.1659
     15 F          62.1501   83.3562   12.0970 F       1  UNL1       -0.1659
     16 C          63.2164   90.4423   13.9429 C.3     1  UNL1        0.2068
     17 C          64.4233   91.3330   13.9447 C.2     1  UNL1        0.3580
     18 N          64.9624   91.8680   12.6512 N.2     1  UNL1       -0.0039
     19 C          66.1693   92.7587   12.6530 C.2     1  UNL1        0.3159
     20 C          66.8370   93.1145   13.9482 C.3     1  UNL1        0.2333
     21 C          66.2978   92.5796   15.2417 C.2     1  UNL1        0.3644
     22 O          66.9655   92.9353   16.5369 O.2     1  UNL1       -0.2422
     23 N          65.0910   91.6888   15.2399 N.am    1  UNL1        0.0289
     24 N          66.7085   93.2938   11.3595 N.pl3   1  UNL1       -0.1888
     25 C          66.4125   94.7063   10.9505 C.3     1  UNL1        0.2343
     26 C          66.9517   95.2413    9.6571 C.3     1  UNL1        0.1929
     27 O          67.7869   94.3638    8.7726 O.3     1  UNL1       -0.3449
     28 C          68.0829   92.9513    9.1815 C.3     1  UNL1        0.1929
     29 C          67.5437   92.4162   10.4749 C.3     1  UNL1        0.2343
@<TRIPOS>BOND
     1     1     2    2
     2     2    16    1
     3    16    17    1
     4    17    18    1
     5    18    19    2
     6    19    24    1
     7    24    25    1
     8    25    26    1
     9    26    27    1
    10    27    28    1
    11    28    29    1
    12    19    20    1
    13    20    21    1
    14    21    22    2
    15    21    23    1
    16     2     3   am
    17     3     4    1
    18     4     5    1
    19     5     6    1
    20     6     7   ar
    21     7     8   ar
    22     8     9   ar
    23     9    10   ar
    24    10    11   ar
    25    11    12    1
    26    12    13    1
    27    12    14    1
    28    12    15    1
    29    23    17    2
    30     7     3    1
    31    29    24    1
    32    11     6   ar
@<TRIPOS>MOLECULE
*****
 29 32 0 0 0
SMALL
GASTEIGER

@<TRIPOS>ATOM
      1 O          63.1735   90.5025   12.9810 O.2     1  UNL1       -0.2739
      2 C          63.4088   89.0212   12.9757 C.2     1  UNL1        0.2419
      3 N          62.7647   88.1631   11.9274 N.am    1  UNL1       -0.2581
      4 C          62.9069   86.6756   11.7961 C.3     1  UNL1        0.1029
      5 C          62.0955   86.2351   10.6139 C.3     1  UNL1        0.0494
      6 C          61.4518   87.4503   10.0147 C.ar    1  UNL1       -0.0029
      7 C          61.8654   88.6418   10.8265 C.ar    1  UNL1        0.0498
      8 C          61.3698   90.0088   10.4584 C.ar    1  UNL1        0.0146
      9 C          60.4605   90.1843    9.2784 C.ar    1  UNL1        0.0012
     10 C          60.0468   88.9927    8.4666 C.ar    1  UNL1        0.0036
     11 C          60.5425   87.6257    8.8347 C.ar    1  UNL1        0.0687
     12 C          60.1288   86.4341    8.0229 C.3     1  UNL1        0.4183
     13 F          59.7152   85.2425    7.2111 F       1  UNL1       -0.1659
     14 F          61.5680   86.1444    7.7149 F       1  UNL1       -0.1659
     15 F          58.6897   86.7238    8.3310 F       1  UNL1       -0.1659
     16 C          64.2883   88.3978   14.0188 C.3     1  UNL1        0.2068
     17 C          63.7936   87.2263   14.8144 C.2     1  UNL1        0.3580
     18 N          63.7227   85.8675   14.1833 N.2     1  UNL1       -0.0039
     19 C          63.2280   84.6960   14.9789 C.2     1  UNL1        0.3159
     20 C          62.8043   84.8835   16.4055 C.3     1  UNL1        0.2333
     21 C          62.8752   86.2423   17.0366 C.2     1  UNL1        0.3644
     22 O          62.4515   86.4298   18.4633 O.2     1  UNL1       -0.2422
     23 N          63.3699   87.4138   16.2411 N.am    1  UNL1        0.0289
     24 N          63.1570   83.3370   14.3477 N.pl3   1  UNL1       -0.1888
     25 C          62.0225   82.4138   14.6806 C.3     1  UNL1        0.2343
     26 C          61.9515   81.0549   14.0495 C.3     1  UNL1        0.1929
     27 O          63.0149   80.6192   13.0856 O.3     1  UNL1       -0.3449
     28 C          64.1494   81.5423   12.7528 C.3     1  UNL1        0.1929
     29 C          64.2205   82.9012   13.3838 C.3     1  UNL1        0.2343
@<TRIPOS>BOND
     1     1     2    2
     2     2    16    1
     3    16    17    1
     4    17    18    1
     5    18    19    2
     6    19    24    1
     7    24    25    1
     8    25    26    1
     9    26    27    1
    10    27    28    1
    11    28    29    1
    12    19    20    1
    13    20    21    1
    14    21    22    2
    15    21    23    1
    16     2     3   am
    17     3     4    1
    18     4     5    1
    19     5     6    1
    20     6     7   ar
    21     7     8   ar
    22     8     9   ar
    23     9    10   ar
    24    10    11   ar
    25    11    12    1
    26    12    13    1
    27    12    14    1
    28    12    15    1
    29    23    17    2
    30     7     3    1
    31    29    24    1
    32    11     6   ar
@<TRIPOS>MOLECULE
*****
 29 32 0 0 0
SMALL
GASTEIGER

@<TRIPOS>ATOM
      1 O          61.5220   91.1611   11.7613 O.2     1  UNL1       -0.2739
      2 C          62.2502   89.8864   12.0689 C.2     1  UNL1        0.2419
      3 N          62.0982   88.6989   11.1651 N.am    1  UNL1       -0.2581
      4 C          62.7602   87.3648   11.3435 C.3     1  UNL1        0.1029
      5 C          62.3287   86.4784   10.2129 C.3     1  UNL1        0.0494
      6 C          61.4000   87.2648    9.3359 C.ar    1  UNL1       -0.0029
      7 C          61.2576   88.6371    9.9244 C.ar    1  UNL1        0.0498
      8 C          60.3809   89.6532    9.2544 C.ar    1  UNL1        0.0146
      9 C          59.6466   89.2969    7.9959 C.ar    1  UNL1        0.0012
     10 C          59.7890   87.9246    7.4074 C.ar    1  UNL1        0.0036
     11 C          60.6657   86.9085    8.0774 C.ar    1  UNL1        0.0687
     12 C          60.8081   85.5361    7.4889 C.3     1  UNL1        0.4183
     13 F          60.9506   84.1638    6.9004 F       1  UNL1       -0.1659
     14 F          59.3155   85.4218    7.3943 F       1  UNL1       -0.1659
     15 F          62.3008   85.6505    7.5834 F       1  UNL1       -0.1659
     16 C          63.1305   89.7991   13.2804 C.3     1  UNL1        0.2068
     17 C          64.1626   90.8573   13.5353 C.2     1  UNL1        0.3580
     18 N          64.7974   91.5786   12.3835 N.2     1  UNL1       -0.0039
     19 C          65.8296   92.6367   12.6384 C.2     1  UNL1        0.3159
     20 C          66.2269   92.9735   14.0450 C.3     1  UNL1        0.2333
     21 C          65.5922   92.2522   15.1968 C.2     1  UNL1        0.3644
     22 O          65.9895   92.5889   16.6035 O.2     1  UNL1       -0.2422
     23 N          64.5600   91.1940   14.9420 N.am    1  UNL1        0.0289
     24 N          66.4644   93.3582   11.4865 N.pl3   1  UNL1       -0.1888
     25 C          67.2585   92.5941   10.4689 C.3     1  UNL1        0.2343
     26 C          67.8934   93.3154    9.3171 C.3     1  UNL1        0.1929
     27 O          67.7340   94.8009    9.1830 O.3     1  UNL1       -0.3449
     28 C          66.9399   95.5650   10.2006 C.3     1  UNL1        0.1929
     29 C          66.3051   94.8437   11.3524 C.3     1  UNL1        0.2343
@<TRIPOS>BOND
     1     1     2    2
     2     2    16    1
     3    16    17    1
     4    17    18    1
     5    18    19    2
     6    19    24    1
     7    24    25    1
     8    25    26    1
     9    26    27    1
    10    27    28    1
    11    28    29    1
    12    19    20    1
    13    20    21    1
    14    21    22    2
    15    21    23    1
    16     2     3   am
    17     3     4    1
    18     4     5    1
    19     5     6    1
    20     6     7   ar
    21     7     8   ar
    22     8     9   ar
    23     9    10   ar
    24    10    11   ar
    25    11    12    1
    26    12    13    1
    27    12    14    1
    28    12    15    1
    29    23    17    2
    30     7     3    1
    31    29    24    1
    32    11     6   ar
@<TRIPOS>MOLECULE
*****
 29 32 0 0 0
SMALL
GASTEIGER

@<TRIPOS>ATOM
      1 O          64.7734   83.4430   11.6814 O.2     1  UNL1       -0.2739
      2 C          63.7914   84.2936   12.4310 C.2     1  UNL1        0.2419
      3 N          62.7684   85.0953   11.6820 N.am    1  UNL1       -0.2581
      4 C          61.7276   85.9866   12.2920 C.3     1  UNL1        0.1029
      5 C          60.9226   86.5885   11.1786 C.3     1  UNL1        0.0494
      6 C          61.4659   86.0691    9.8805 C.ar    1  UNL1       -0.0029
      7 C          62.6067   85.1462   10.1916 C.ar    1  UNL1        0.0498
      8 C          63.3509   84.4715    9.0777 C.ar    1  UNL1        0.0146
      9 C          62.9542   84.7196    7.6526 C.ar    1  UNL1        0.0012
     10 C          61.8134   85.6425    7.3414 C.ar    1  UNL1        0.0036
     11 C          61.0693   86.3172    8.4553 C.ar    1  UNL1        0.0687
     12 C          59.9284   87.2401    8.1442 C.3     1  UNL1        0.4183
     13 F          58.7876   88.1630    7.8330 F       1  UNL1       -0.1659
     14 F          59.1171   86.0745    7.6616 F       1  UNL1       -0.1659
     15 F          60.7398   88.4058    8.6268 F       1  UNL1       -0.1659
     16 C          63.8324   84.3427   13.9297 C.3     1  UNL1        0.2068
     17 C          63.7223   85.6591   14.6403 C.2     1  UNL1        0.3580
     18 N          64.0295   86.9331   13.9107 N.2     1  UNL1       -0.0039
     19 C          63.9194   88.2495   14.6213 C.2     1  UNL1        0.3159
     20 C          63.5021   88.2918   16.0615 C.3     1  UNL1        0.2333
     21 C          63.1950   87.0178   16.7911 C.2     1  UNL1        0.3644
     22 O          62.7778   87.0600   18.2313 O.2     1  UNL1       -0.2422
     23 N          63.3051   85.7013   16.0805 N.am    1  UNL1        0.0289
     24 N          64.2265   89.5237   13.8917 N.pl3   1  UNL1       -0.1888
     25 C          63.4988   89.8554   12.6226 C.3     1  UNL1        0.2343
     26 C          63.8059   91.1295   11.8930 C.3     1  UNL1        0.1929
     27 O          64.8407   92.0719   12.4325 O.3     1  UNL1       -0.3449
     28 C          65.5684   91.7402   13.7015 C.3     1  UNL1        0.1929
     29 C          65.2613   90.4661   14.4311 C.3     1  UNL1        0.2343
@<TRIPOS>BOND
     1     1     2    2
     2     2    16    1
     3    16    17    1
     4    17    18    1
     5    18    19    2
     6    19    24    1
     7    24    25    1
     8    25    26    1
     9    26    27    1
    10    27    28    1
    11    28    29    1
    12    19    20    1
    13    20    21    1
    14    21    22    2
    15    21    23    1
    16     2     3   am
    17     3     4    1
    18     4     5    1
    19     5     6    1
    20     6     7   ar
    21     7     8   ar
    22     8     9   ar
    23     9    10   ar
    24    10    11   ar
    25    11    12    1
    26    12    13    1
    27    12    14    1
    28    12    15    1
    29    23    17    2
    30     7     3    1
    31    29    24    1
    32    11     6   ar
