@<TRIPOS>MOLECULE
*****
 56 60 0 0 0
SMALL
GASTEIGER

@<TRIPOS>ATOM
      1 C          62.0869   88.2738   11.2826 C.3     1  UNL1        0.0760
      2 C          62.7409   89.5184   13.4674 C.2     1  UNL1        0.2407
      3 O          61.3176   89.9579   13.6432 O.2     1  UNL1       -0.2733
      4 N          63.1256   88.6763   12.2871 N.am    1  UNL1       -0.3043
      5 H          64.0598   88.3878   12.1718 H       1  UNL1        0.1494
      6 C          63.7796   89.9209   14.4720 C.3     1  UNL1        0.1556
      7 N          66.8230   92.4662   14.3754 N.am    1  UNL1       -0.2567
      8 C          67.3736   93.6064   15.1797 C.3     1  UNL1        0.1168
      9 C          65.5766   91.7636   14.8258 C.2     1  UNL1        0.3046
     10 O          64.8808   92.2012   16.0806 O.2     1  UNL1       -0.2526
     11 N          65.0260   90.6235   14.0216 N.am    1  UNL1       -0.2821
     12 H          65.4827   90.3363   13.1980 H       1  UNL1        0.1514
     13 C          67.5188   92.0286   13.1207 C.3     1  UNL1        0.1413
     14 C          66.8426   94.6198   10.3110 C.ar    1  UNL1        0.0875
     15 N          66.8346   94.2239   11.7578 N.ar    1  UNL1       -0.2453
     16 C          67.3562   92.8211   11.8575 C.ar    1  UNL1        0.0858
     17 C          67.6865   92.3498   10.4723 C.ar    1  UNL1        0.0530
     18 S          67.3692   93.4615    9.5165 S.2     1  UNL1       -0.0705
     19 C          66.9971   96.4553    8.4787 C.3     1  UNL1        0.0069
     20 C          66.4015   95.9417    9.7561 C.3     1  UNL1        0.0465
     21 C          65.3649   96.7501   10.4786 C.3     1  UNL1        0.0069
     22 C          63.5719   89.6208   15.9269 C.3     1  UNL1        0.0742
     23 C          63.3917   88.2029   16.3819 C.ar    1  UNL1        0.0563
     24 C          62.7873   87.7645   17.6829 C.ar    1  UNL1        0.1131
     25 N          62.8062   86.2651   17.7210 N.ar    1  UNL1       -0.2229
     26 C          63.4224   85.7768   16.4435 C.ar    1  UNL1        0.1748
     27 N          63.7842   86.9744   15.6160 N.ar    1  UNL1       -0.3381
     28 H          64.2054   86.9571   14.7263 H       1  UNL1        0.1672
     29 C          61.5065   86.8911   11.3168 C.3     1  UNL1        0.0216
     30 C          62.4112   85.7008   11.4372 C.3     1  UNL1        0.0217
     31 C          62.6639   84.8271   10.2444 C.3     1  UNL1        0.0792
     32 N          62.4120   83.3508   10.3291 N.am    1  UNL1       -0.2720
     33 C          63.5664   82.3969   10.4163 C.2     1  UNL1        0.4019
     34 O          64.9725   82.9192   10.4187 O.2     1  UNL1       -0.2264
     35 H          61.4892   83.0080   10.3275 H       1  UNL1        0.1527
     36 O          63.3145   80.9206   10.5011 O.3     1  UNL1       -0.4291
     37 C          62.9642   80.2939   11.8181 C.3     1  UNL1        0.2447
     38 C          62.9077   81.1362   13.0580 C.ar    1  UNL1        0.0714
     39 C          64.0863   81.6921   13.8008 C.ar    1  UNL1        0.1053
     40 N          63.5697   82.4699   14.9747 N.ar    1  UNL1       -0.2350
     41 C          62.0716   82.3947   14.9575 C.ar    1  UNL1        0.1343
     42 S          61.6625   81.5704   13.7729 S.2     1  UNL1       -0.0652
     43 C          63.1685   85.4297    8.9668 C.3     1  UNL1        0.0460
     44 C          62.5643   85.0226    7.6555 C.ar    1  UNL1       -0.0205
     45 C          63.4508   84.6313    6.5106 C.ar    1  UNL1       -0.0042
     46 C          62.8466   84.2242    5.1994 C.ar    1  UNL1       -0.0003
     47 C          61.3559   84.2085    5.0332 C.ar    1  UNL1       -0.0000
     48 C          60.4694   84.5998    6.1782 C.ar    1  UNL1       -0.0003
     49 C          61.0736   85.0069    7.4893 C.ar    1  UNL1       -0.0042
     50 C          61.6286   89.2541   10.2438 C.3     1  UNL1        0.0459
     51 C          60.6386   88.8318    9.1990 C.ar    1  UNL1       -0.0205
     52 C          59.8884   87.5423    9.3544 C.ar    1  UNL1       -0.0042
     53 C          58.8984   87.1199    8.3096 C.ar    1  UNL1       -0.0003
     54 C          58.6587   87.9871    7.1094 C.ar    1  UNL1       -0.0000
     55 C          59.4089   89.2767    6.9540 C.ar    1  UNL1       -0.0003
     56 C          60.3989   89.6990    7.9988 C.ar    1  UNL1       -0.0042
@<TRIPOS>BOND
     1    19    20    1
     2    20    21    1
     3    20    14    1
     4    14    15   ar
     5    15    16   ar
     6    16    13    1
     7    13     7    1
     8     7     8    1
     9     7     9   am
    10     9    10    2
    11     9    11   am
    12    11     6    1
    13     6    22    1
    14    22    23    1
    15    23    24   ar
    16    24    25   ar
    17    25    26   ar
    18    26    27   ar
    19     6     2    1
    20     2     3    2
    21     2     4   am
    22     4     1    1
    23     1    29    1
    24    29    30    1
    25    31    30    1
    26    31    43    1
    27    43    44    1
    28    44    45   ar
    29    45    46   ar
    30    46    47   ar
    31    47    48   ar
    32    48    49   ar
    33    31    32    1
    34    32    33   am
    35    33    34    2
    36    33    36    1
    37    36    37    1
    38    37    38    1
    39    38    39   ar
    40    39    40   ar
    41    40    41   ar
    42    41    42   ar
    43     1    50    1
    44    50    51    1
    45    51    52   ar
    46    52    53   ar
    47    53    54   ar
    48    54    55   ar
    49    55    56   ar
    50    16    17   ar
    51    17    18   ar
    52    18    14   ar
    53    27    23   ar
    54    49    44   ar
    55    42    38   ar
    56    56    51   ar
    57    11    12    1
    58    27    28    1
    59     4     5    1
    60    32    35    1
@<TRIPOS>MOLECULE
*****
 56 60 0 0 0
SMALL
GASTEIGER

@<TRIPOS>ATOM
      1 C          62.1347   87.6926   11.3572 C.3     1  UNL1        0.0760
      2 C          60.5140   88.2724    9.4111 C.2     1  UNL1        0.2407
      3 O          59.7546   89.1945   10.3183 O.2     1  UNL1       -0.2733
      4 N          61.7041   87.5214    9.9306 N.am    1  UNL1       -0.3043
      5 H          62.2025   86.9162    9.3351 H       1  UNL1        0.1494
      6 C          60.0833   88.1012    7.9845 C.3     1  UNL1        0.1556
      7 N          58.8117   90.9390    5.5188 N.am    1  UNL1       -0.2567
      8 C          57.5271   91.4256    4.9162 C.3     1  UNL1        0.1168
      9 C          58.8052   89.7634    6.4503 C.2     1  UNL1        0.3046
     10 O          57.5142   89.0743    6.7793 O.2     1  UNL1       -0.2526
     11 N          60.0898   89.2769    7.0529 N.am    1  UNL1       -0.2821
     12 H          60.9372   89.7292    6.8370 H       1  UNL1        0.1514
     13 C          60.1028   91.6282    5.1899 C.3     1  UNL1        0.1413
     14 C          59.9843   93.1713    1.6303 C.ar    1  UNL1        0.0875
     15 N          59.3137   92.7954    2.9183 N.ar    1  UNL1       -0.2453
     16 C          60.3399   92.1558    3.8058 C.ar    1  UNL1        0.0858
     17 C          61.6448   92.1363    3.0664 C.ar    1  UNL1        0.0530
     18 S          61.4251   92.7640    1.7218 S.2     1  UNL1       -0.0705
     19 C          59.3196   95.3339    0.3531 C.3     1  UNL1        0.0069
     20 C          59.3293   93.8376    0.4568 C.3     1  UNL1        0.0465
     21 C          58.6839   93.0074   -0.6129 C.3     1  UNL1        0.0069
     22 C          59.6463   86.7544    7.4894 C.3     1  UNL1        0.0742
     23 C          60.6690   85.7476    7.0532 C.ar    1  UNL1        0.0563
     24 C          62.0440   85.5812    7.6290 C.ar    1  UNL1        0.1131
     25 N          62.7210   84.4611    6.8962 N.ar    1  UNL1       -0.2229
     26 C          61.7644   83.9352    5.8674 C.ar    1  UNL1        0.1748
     27 N          60.4962   84.7303    5.9645 N.ar    1  UNL1       -0.3381
     28 H          59.6917   84.6063    5.4108 H       1  UNL1        0.1672
     29 C          62.7249   88.9946   11.8114 C.3     1  UNL1        0.0216
     30 C          63.8614   89.0019   12.7903 C.3     1  UNL1        0.0217
     31 C          64.0189   90.1456   13.7481 C.3     1  UNL1        0.0792
     32 N          64.3906   91.5060   13.2371 N.am    1  UNL1       -0.2720
     33 C          65.7506   92.0695   13.5251 C.2     1  UNL1        0.4019
     34 O          66.7389   91.2726   14.3240 O.2     1  UNL1       -0.2264
     35 H          63.7420   92.0290   12.7128 H       1  UNL1        0.1527
     36 O          66.1223   93.4299   13.0141 O.3     1  UNL1       -0.4291
     37 C          65.7238   93.8455   11.6290 C.3     1  UNL1        0.2447
     38 C          66.6899   93.6898   10.4921 C.ar    1  UNL1        0.0714
     39 C          67.4909   92.4612   10.1778 C.ar    1  UNL1        0.1053
     40 N          68.3206   92.7475    8.9613 N.ar    1  UNL1       -0.2350
     41 C          68.0324   94.1530    8.5239 C.ar    1  UNL1        0.1343
     42 S          67.0245   94.7354    9.4700 S.2     1  UNL1       -0.0652
     43 C          63.8047   89.9288   15.2168 C.3     1  UNL1        0.0460
     44 C          63.6762   88.5359   15.7585 C.ar    1  UNL1       -0.0205
     45 C          64.3572   87.3948   15.0628 C.ar    1  UNL1       -0.0042
     46 C          64.2286   86.0020   15.6045 C.ar    1  UNL1       -0.0003
     47 C          63.4190   85.7502   16.8418 C.ar    1  UNL1       -0.0000
     48 C          62.7379   86.8913   17.5375 C.ar    1  UNL1       -0.0003
     49 C          62.8665   88.2841   16.9959 C.ar    1  UNL1       -0.0042
     50 C          61.9751   86.5616   12.3296 C.3     1  UNL1        0.0459
     51 C          62.6189   85.2359   12.0503 C.ar    1  UNL1       -0.0205
     52 C          62.7931   84.2387   13.1572 C.ar    1  UNL1       -0.0042
     53 C          63.4369   82.9130   12.8779 C.ar    1  UNL1       -0.0003
     54 C          63.9064   82.5844   11.4917 C.ar    1  UNL1       -0.0000
     55 C          63.7322   83.5816   10.3848 C.ar    1  UNL1       -0.0003
     56 C          63.0885   84.9074   10.6641 C.ar    1  UNL1       -0.0042
@<TRIPOS>BOND
     1    19    20    1
     2    20    21    1
     3    20    14    1
     4    14    15   ar
     5    15    16   ar
     6    16    13    1
     7    13     7    1
     8     7     8    1
     9     7     9   am
    10     9    10    2
    11     9    11   am
    12    11     6    1
    13     6    22    1
    14    22    23    1
    15    23    24   ar
    16    24    25   ar
    17    25    26   ar
    18    26    27   ar
    19     6     2    1
    20     2     3    2
    21     2     4   am
    22     4     1    1
    23     1    29    1
    24    29    30    1
    25    31    30    1
    26    31    43    1
    27    43    44    1
    28    44    45   ar
    29    45    46   ar
    30    46    47   ar
    31    47    48   ar
    32    48    49   ar
    33    31    32    1
    34    32    33   am
    35    33    34    2
    36    33    36    1
    37    36    37    1
    38    37    38    1
    39    38    39   ar
    40    39    40   ar
    41    40    41   ar
    42    41    42   ar
    43     1    50    1
    44    50    51    1
    45    51    52   ar
    46    52    53   ar
    47    53    54   ar
    48    54    55   ar
    49    55    56   ar
    50    16    17   ar
    51    17    18   ar
    52    18    14   ar
    53    27    23   ar
    54    49    44   ar
    55    42    38   ar
    56    56    51   ar
    57    11    12    1
    58    27    28    1
    59     4     5    1
    60    32    35    1
@<TRIPOS>MOLECULE
*****
 56 60 0 0 0
SMALL
GASTEIGER

@<TRIPOS>ATOM
      1 C          62.6365   89.1148   11.3018 C.3     1  UNL1        0.0760
      2 C          62.7052   86.7743   12.4276 C.2     1  UNL1        0.2407
      3 O          61.3369   86.4758   11.8906 O.2     1  UNL1       -0.2733
      4 N          63.3550   88.0939   12.1333 N.am    1  UNL1       -0.3043
      5 H          64.2532   88.2898   12.4858 H       1  UNL1        0.1494
      6 C          63.4238   85.7534   13.2591 C.3     1  UNL1        0.1556
      7 N          62.1732   82.0017   13.5919 N.am    1  UNL1       -0.2567
      8 C          61.2974   81.1733   14.4845 C.3     1  UNL1        0.1168
      9 C          62.3606   83.4633   13.8718 C.2     1  UNL1        0.3046
     10 O          61.6721   84.0967   15.0444 O.2     1  UNL1       -0.2526
     11 N          63.2364   84.2916   12.9792 N.am    1  UNL1       -0.2821
     12 H          63.6882   83.8759   12.2096 H       1  UNL1        0.1514
     13 C          62.8617   81.3683   12.4193 C.3     1  UNL1        0.1413
     14 C          63.3385   83.8132    9.4426 C.ar    1  UNL1        0.0875
     15 N          62.4759   83.1849   10.4967 N.ar    1  UNL1       -0.2453
     16 C          63.3209   82.2172   11.2710 C.ar    1  UNL1        0.0858
     17 C          64.7057   82.2473   10.6954 C.ar    1  UNL1        0.0530
     18 S          64.7166   83.2337    9.5654 S.2     1  UNL1       -0.0705
     19 C          62.5450   84.4233    7.0451 C.3     1  UNL1        0.0069
     20 C          62.9000   84.8405    8.4415 C.3     1  UNL1        0.0465
     21 C          62.8165   86.2851    8.8367 C.3     1  UNL1        0.0069
     22 C          64.3297   86.1941   14.3704 C.3     1  UNL1        0.0742
     23 C          63.7532   86.8299   15.6005 C.ar    1  UNL1        0.0563
     24 C          63.3093   86.1103   16.8395 C.ar    1  UNL1        0.1131
     25 N          62.8011   87.1327   17.8125 N.ar    1  UNL1       -0.2229
     26 C          62.9310   88.4841   17.1747 C.ar    1  UNL1        0.1748
     27 N          63.5194   88.2970   15.8077 N.ar    1  UNL1       -0.3381
     28 H          63.7173   89.0117   15.1602 H       1  UNL1        0.1672
     29 C          63.4167   90.1368   10.5293 C.3     1  UNL1        0.0216
     30 C          63.4668   91.5585   11.0046 C.3     1  UNL1        0.0217
     31 C          64.6084   92.0239   11.8592 C.3     1  UNL1        0.0792
     32 N          64.3871   92.3112   13.3147 N.am    1  UNL1       -0.2720
     33 C          64.5173   91.2099   14.3249 C.2     1  UNL1        0.4019
     34 O          64.8687   89.8214   13.8795 O.2     1  UNL1       -0.2264
     35 H          64.1565   93.2226   13.6070 H       1  UNL1        0.1527
     36 O          64.2960   91.4973   15.7804 O.3     1  UNL1       -0.4291
     37 C          65.2784   92.3423   16.5359 C.3     1  UNL1        0.2447
     38 C          66.6174   92.6534   15.9357 C.ar    1  UNL1        0.0714
     39 C          66.8805   93.6220   14.8210 C.ar    1  UNL1        0.1053
     40 N          68.3541   93.6178   14.5412 N.ar    1  UNL1       -0.2350
     41 C          69.0019   92.6466   15.4830 C.ar    1  UNL1        0.1343
     42 S          67.9286   92.0506   16.3449 S.2     1  UNL1       -0.0652
     43 C          65.9712   92.2018   11.2584 C.3     1  UNL1        0.0460
     44 C          66.3737   93.5315   10.6926 C.ar    1  UNL1       -0.0205
     45 C          67.1659   93.5965    9.4205 C.ar    1  UNL1       -0.0042
     46 C          67.5683   94.9261    8.8548 C.ar    1  UNL1       -0.0003
     47 C          67.1785   96.1907    9.5611 C.ar    1  UNL1       -0.0000
     48 C          66.3863   96.1257   10.8332 C.ar    1  UNL1       -0.0003
     49 C          65.9839   94.7961   11.3989 C.ar    1  UNL1       -0.0042
     50 C          61.1376   89.1138   11.2430 C.3     1  UNL1        0.0459
     51 C          60.4374   88.7588    9.9648 C.ar    1  UNL1       -0.0205
     52 C          60.3998   89.7417    8.8323 C.ar    1  UNL1       -0.0042
     53 C          59.6997   89.3867    7.5541 C.ar    1  UNL1       -0.0003
     54 C          59.0372   88.0489    7.4084 C.ar    1  UNL1       -0.0000
     55 C          59.0748   87.0660    8.5409 C.ar    1  UNL1       -0.0003
     56 C          59.7749   87.4209    9.8191 C.ar    1  UNL1       -0.0042
@<TRIPOS>BOND
     1    19    20    1
     2    20    21    1
     3    20    14    1
     4    14    15   ar
     5    15    16   ar
     6    16    13    1
     7    13     7    1
     8     7     8    1
     9     7     9   am
    10     9    10    2
    11     9    11   am
    12    11     6    1
    13     6    22    1
    14    22    23    1
    15    23    24   ar
    16    24    25   ar
    17    25    26   ar
    18    26    27   ar
    19     6     2    1
    20     2     3    2
    21     2     4   am
    22     4     1    1
    23     1    29    1
    24    29    30    1
    25    31    30    1
    26    31    43    1
    27    43    44    1
    28    44    45   ar
    29    45    46   ar
    30    46    47   ar
    31    47    48   ar
    32    48    49   ar
    33    31    32    1
    34    32    33   am
    35    33    34    2
    36    33    36    1
    37    36    37    1
    38    37    38    1
    39    38    39   ar
    40    39    40   ar
    41    40    41   ar
    42    41    42   ar
    43     1    50    1
    44    50    51    1
    45    51    52   ar
    46    52    53   ar
    47    53    54   ar
    48    54    55   ar
    49    55    56   ar
    50    16    17   ar
    51    17    18   ar
    52    18    14   ar
    53    27    23   ar
    54    49    44   ar
    55    42    38   ar
    56    56    51   ar
    57    11    12    1
    58    27    28    1
    59     4     5    1
    60    32    35    1
@<TRIPOS>MOLECULE
*****
 56 60 0 0 0
SMALL
GASTEIGER

@<TRIPOS>ATOM
      1 C          63.5748   89.4424   13.0760 C.3     1  UNL1        0.0760
      2 C          61.6965   88.3802   11.6289 C.2     1  UNL1        0.2407
      3 O          60.7199   89.3895   12.1557 O.2     1  UNL1       -0.2733
      4 N          63.1240   88.4067   12.0891 N.am    1  UNL1       -0.3043
      5 H          63.7650   87.7443   11.7433 H       1  UNL1        0.1494
      6 C          61.2458   87.3445   10.6419 C.3     1  UNL1        0.1556
      7 N          63.0812   84.6014    8.4382 N.am    1  UNL1       -0.2567
      8 C          63.0618   84.0767    7.0330 C.3     1  UNL1        0.1168
      9 C          62.1538   85.7106    8.8375 C.2     1  UNL1        0.3046
     10 O          61.2070   86.2952    7.8316 O.2     1  UNL1       -0.2526
     11 N          62.1732   86.2352   10.2426 N.am    1  UNL1       -0.2821
     12 H          62.7947   85.8515   10.9027 H       1  UNL1        0.1514
     13 C          64.0281   84.0168    9.4441 C.3     1  UNL1        0.1413
     14 C          62.5679   82.0936   12.4830 C.ar    1  UNL1        0.0875
     15 N          62.9252   83.3768   11.7934 N.ar    1  UNL1       -0.2453
     16 C          63.5282   83.0359   10.4629 C.ar    1  UNL1        0.0858
     17 C          63.5437   81.5418   10.3303 C.ar    1  UNL1        0.0530
     18 S          62.9502   80.9594   11.5787 S.2     1  UNL1       -0.0705
     19 C          62.2621   82.9637   14.9119 C.3     1  UNL1        0.0069
     20 C          61.9389   81.9667   13.8388 C.3     1  UNL1        0.0465
     21 C          60.9865   80.8428   14.1214 C.3     1  UNL1        0.0069
     22 C          59.8677   87.4181   10.0543 C.3     1  UNL1        0.0742
     23 C          59.6286   88.2035    8.7989 C.ar    1  UNL1        0.0563
     24 C          60.2027   89.5520    8.4798 C.ar    1  UNL1        0.1131
     25 N          59.7023   89.9604    7.1260 N.ar    1  UNL1       -0.2229
     26 C          58.8188   88.8642    6.6084 C.ar    1  UNL1        0.1748
     27 N          58.7733   87.7785    7.6423 N.ar    1  UNL1       -0.3381
     28 H          58.2703   86.9349    7.5738 H       1  UNL1        0.1672
     29 C          63.1262   90.8659   12.9269 C.3     1  UNL1        0.0216
     30 C          64.0327   91.9856   13.3448 C.3     1  UNL1        0.0217
     31 C          65.2737   92.2802   12.5553 C.3     1  UNL1        0.0792
     32 N          65.2458   93.3198   11.4744 N.am    1  UNL1       -0.2720
     33 C          65.8048   94.6873   11.7344 C.2     1  UNL1        0.4019
     34 O          66.3917   95.0152   13.0753 O.2     1  UNL1       -0.2264
     35 H          64.8606   93.1046   10.5943 H       1  UNL1        0.1527
     36 O          65.7769   95.7269   10.6534 O.3     1  UNL1       -0.4291
     37 C          66.9037   95.8139    9.6672 C.3     1  UNL1        0.2447
     38 C          67.6190   94.5687    9.2340 C.ar    1  UNL1        0.0714
     39 C          67.8475   94.1306    7.8177 C.ar    1  UNL1        0.1053
     40 N          68.6011   92.8340    7.8493 N.ar    1  UNL1       -0.2350
     41 C          68.8385   92.4708    9.2852 C.ar    1  UNL1        0.1343
     42 S          68.2315   93.5429   10.1409 S.2     1  UNL1       -0.0652
     43 C          66.5426   91.5353   12.8469 C.3     1  UNL1        0.0460
     44 C          67.3947   91.9339   14.0153 C.ar    1  UNL1       -0.0205
     45 C          68.8674   92.1506   13.8302 C.ar    1  UNL1       -0.0042
     46 C          69.7194   92.5491   14.9986 C.ar    1  UNL1       -0.0003
     47 C          69.0989   92.7309   16.3520 C.ar    1  UNL1       -0.0000
     48 C          67.6262   92.5142   16.5371 C.ar    1  UNL1       -0.0003
     49 C          66.7742   92.1156   15.3687 C.ar    1  UNL1       -0.0042
     50 C          64.4741   89.0545   14.2122 C.3     1  UNL1        0.0459
     51 C          63.9850   88.1048   15.2653 C.ar    1  UNL1       -0.0205
     52 C          64.2500   86.6346   15.1307 C.ar    1  UNL1       -0.0042
     53 C          63.7609   85.6848   16.1837 C.ar    1  UNL1       -0.0003
     54 C          63.0069   86.2054   17.3713 C.ar    1  UNL1       -0.0000
     55 C          62.7420   87.6757   17.5060 C.ar    1  UNL1       -0.0003
     56 C          63.2310   88.6254   16.4529 C.ar    1  UNL1       -0.0042
@<TRIPOS>BOND
     1    19    20    1
     2    20    21    1
     3    20    14    1
     4    14    15   ar
     5    15    16   ar
     6    16    13    1
     7    13     7    1
     8     7     8    1
     9     7     9   am
    10     9    10    2
    11     9    11   am
    12    11     6    1
    13     6    22    1
    14    22    23    1
    15    23    24   ar
    16    24    25   ar
    17    25    26   ar
    18    26    27   ar
    19     6     2    1
    20     2     3    2
    21     2     4   am
    22     4     1    1
    23     1    29    1
    24    29    30    1
    25    31    30    1
    26    31    43    1
    27    43    44    1
    28    44    45   ar
    29    45    46   ar
    30    46    47   ar
    31    47    48   ar
    32    48    49   ar
    33    31    32    1
    34    32    33   am
    35    33    34    2
    36    33    36    1
    37    36    37    1
    38    37    38    1
    39    38    39   ar
    40    39    40   ar
    41    40    41   ar
    42    41    42   ar
    43     1    50    1
    44    50    51    1
    45    51    52   ar
    46    52    53   ar
    47    53    54   ar
    48    54    55   ar
    49    55    56   ar
    50    16    17   ar
    51    17    18   ar
    52    18    14   ar
    53    27    23   ar
    54    49    44   ar
    55    42    38   ar
    56    56    51   ar
    57    11    12    1
    58    27    28    1
    59     4     5    1
    60    32    35    1
@<TRIPOS>MOLECULE
*****
 56 60 0 0 0
SMALL
GASTEIGER

@<TRIPOS>ATOM
      1 C          61.9221   87.6427   11.9276 C.3     1  UNL1        0.0760
      2 C          63.2132   89.6062   13.0356 C.2     1  UNL1        0.2407
      3 O          63.4462   90.2153   11.6848 O.2     1  UNL1       -0.2733
      4 N          62.4512   88.3199   13.1570 N.am    1  UNL1       -0.3043
      5 H          62.2983   87.9201   14.0436 H       1  UNL1        0.1494
      6 C          63.7423   90.2834   14.2650 C.3     1  UNL1        0.1556
      7 N          66.9298   92.6461   14.3500 N.am    1  UNL1       -0.2567
      8 C          68.3884   92.5706   14.6920 C.3     1  UNL1        0.1168
      9 C          66.0654   91.4270   14.4785 C.2     1  UNL1        0.3046
     10 O          66.6594   90.1325   14.9490 O.2     1  UNL1       -0.2526
     11 N          64.6068   91.5025   14.1365 N.am    1  UNL1       -0.2821
     12 H          64.2170   92.3522   13.8277 H       1  UNL1        0.1514
     13 C          66.3358   93.9406   13.8795 C.3     1  UNL1        0.1413
     14 C          67.1513   94.4049   10.1132 C.ar    1  UNL1        0.0875
     15 N          67.1655   93.5779   11.3645 N.ar    1  UNL1       -0.2453
     16 C          66.5302   94.3827   12.4593 C.ar    1  UNL1        0.0858
     17 C          66.1233   95.7071   11.8847 C.ar    1  UNL1        0.0530
     18 S          66.5072   95.7209   10.4347 S.2     1  UNL1       -0.0705
     19 C          68.4871   92.7266    8.6473 C.3     1  UNL1        0.0069
     20 C          67.6872   93.9890    8.7753 C.3     1  UNL1        0.0465
     21 C          67.4230   94.8355    7.5655 C.3     1  UNL1        0.0069
     22 C          63.4068   89.7416   15.6229 C.3     1  UNL1        0.0742
     23 C          63.5510   88.2748   15.9017 C.ar    1  UNL1        0.0563
     24 C          64.4950   87.3349   15.2123 C.ar    1  UNL1        0.1131
     25 N          64.3039   85.9696   15.8034 N.ar    1  UNL1       -0.2229
     26 C          63.2417   86.0657   16.8583 C.ar    1  UNL1        0.1748
     27 N          62.7764   87.4904   16.9190 N.ar    1  UNL1       -0.3381
     28 H          62.0842   87.8480   17.5209 H       1  UNL1        0.1672
     29 C          60.5847   88.0339   11.3726 C.3     1  UNL1        0.0216
     30 C          60.4952   89.0705   10.2921 C.3     1  UNL1        0.0217
     31 C          60.1805   88.6608    8.8838 C.3     1  UNL1        0.0792
     32 N          60.2972   89.6575    7.7690 N.am    1  UNL1       -0.2720
     33 C          59.2656   89.6893    6.6803 C.2     1  UNL1        0.4019
     34 O          58.1175   88.7243    6.7066 O.2     1  UNL1       -0.2264
     35 H          61.0507   90.2909    7.7517 H       1  UNL1        0.1527
     36 O          59.3822   90.6860    5.5655 O.3     1  UNL1       -0.4291
     37 C          60.7001   90.8937    4.8799 C.3     1  UNL1        0.2447
     38 C          60.8276   91.9222    3.7955 C.ar    1  UNL1        0.0714
     39 C          62.0545   92.1918    2.9758 C.ar    1  UNL1        0.1053
     40 N          61.7357   93.2980    2.0142 N.ar    1  UNL1       -0.2350
     41 C          60.3117   93.7120    2.2395 C.ar    1  UNL1        0.1343
     42 S          59.7505   92.8618    3.3405 S.2     1  UNL1       -0.0652
     43 C          59.7493   87.2544    8.5905 C.3     1  UNL1        0.0460
     44 C          60.7104   86.2916    7.9585 C.ar    1  UNL1       -0.0205
     45 C          62.1385   86.2488    8.4153 C.ar    1  UNL1       -0.0042
     46 C          63.0995   85.2860    7.7833 C.ar    1  UNL1       -0.0003
     47 C          62.6325   84.3661    6.6945 C.ar    1  UNL1       -0.0000
     48 C          61.2044   84.4089    6.2377 C.ar    1  UNL1       -0.0003
     49 C          60.2434   85.3716    6.8697 C.ar    1  UNL1       -0.0042
     50 C          62.7306   86.5742   11.2531 C.3     1  UNL1        0.0459
     51 C          62.7600   85.1858   11.8200 C.ar    1  UNL1       -0.0205
     52 C          62.4471   84.9607   13.2696 C.ar    1  UNL1       -0.0042
     53 C          62.4766   83.5723   13.8365 C.ar    1  UNL1       -0.0003
     54 C          62.8189   82.4089   12.9538 C.ar    1  UNL1       -0.0000
     55 C          63.1318   82.6339   11.5041 C.ar    1  UNL1       -0.0003
     56 C          63.1024   84.0223   10.9372 C.ar    1  UNL1       -0.0042
@<TRIPOS>BOND
     1    19    20    1
     2    20    21    1
     3    20    14    1
     4    14    15   ar
     5    15    16   ar
     6    16    13    1
     7    13     7    1
     8     7     8    1
     9     7     9   am
    10     9    10    2
    11     9    11   am
    12    11     6    1
    13     6    22    1
    14    22    23    1
    15    23    24   ar
    16    24    25   ar
    17    25    26   ar
    18    26    27   ar
    19     6     2    1
    20     2     3    2
    21     2     4   am
    22     4     1    1
    23     1    29    1
    24    29    30    1
    25    31    30    1
    26    31    43    1
    27    43    44    1
    28    44    45   ar
    29    45    46   ar
    30    46    47   ar
    31    47    48   ar
    32    48    49   ar
    33    31    32    1
    34    32    33   am
    35    33    34    2
    36    33    36    1
    37    36    37    1
    38    37    38    1
    39    38    39   ar
    40    39    40   ar
    41    40    41   ar
    42    41    42   ar
    43     1    50    1
    44    50    51    1
    45    51    52   ar
    46    52    53   ar
    47    53    54   ar
    48    54    55   ar
    49    55    56   ar
    50    16    17   ar
    51    17    18   ar
    52    18    14   ar
    53    27    23   ar
    54    49    44   ar
    55    42    38   ar
    56    56    51   ar
    57    11    12    1
    58    27    28    1
    59     4     5    1
    60    32    35    1
@<TRIPOS>MOLECULE
*****
 56 60 0 0 0
SMALL
GASTEIGER

@<TRIPOS>ATOM
      1 C          62.5004   86.7290   11.8248 C.3     1  UNL1        0.0760
      2 C          61.0248   88.7801   11.2202 C.2     1  UNL1        0.2407
      3 O          59.9379   88.2619   12.1146 O.2     1  UNL1       -0.2733
      4 N          62.3061   88.0137   11.0753 N.am    1  UNL1       -0.3043
      5 H          63.0194   88.3538   10.4882 H       1  UNL1        0.1494
      6 C          60.8305   90.0648   10.4706 C.3     1  UNL1        0.1556
      7 N          59.2941   88.8005    7.0368 N.am    1  UNL1       -0.2567
      8 C          59.2012   87.5375    6.2329 C.3     1  UNL1        0.1168
      9 C          60.0158   88.8011    8.3517 C.2     1  UNL1        0.3046
     10 O          60.6447   87.5388    8.8628 O.2     1  UNL1       -0.2526
     11 N          60.1087   90.0641    9.1556 N.am    1  UNL1       -0.2821
     12 H          59.6960   90.8926    8.8202 H       1  UNL1        0.1514
     13 C          58.6653   90.0628    6.5258 C.3     1  UNL1        0.1413
     14 C          61.0190   91.6793    3.8966 C.ar    1  UNL1        0.0875
     15 N          60.7571   90.6728    4.9775 N.ar    1  UNL1       -0.2453
     16 C          59.3463   90.8586    5.4520 C.ar    1  UNL1        0.0858
     17 C          58.7363   91.9799    4.6644 C.ar    1  UNL1        0.0530
     18 S          59.7700   92.4871    3.7030 S.2     1  UNL1       -0.0705
     19 C          63.4168   90.8589    3.3242 C.3     1  UNL1        0.0069
     20 C          62.3041   91.8483    3.1417 C.3     1  UNL1        0.0465
     21 C          62.4766   93.0066    2.2044 C.3     1  UNL1        0.0069
     22 C          61.3578   91.3502   11.0360 C.3     1  UNL1        0.0742
     23 C          62.8375   91.5671   11.1523 C.ar    1  UNL1        0.0563
     24 C          63.6811   91.2650   12.3553 C.ar    1  UNL1        0.1131
     25 N          65.0983   91.6355   12.0325 N.ar    1  UNL1       -0.2229
     26 C          65.1307   92.1666   10.6300 C.ar    1  UNL1        0.1748
     27 N          63.7334   92.1243   10.0861 N.ar    1  UNL1       -0.3381
     28 H          63.4535   92.4118    9.1870 H       1  UNL1        0.1672
     29 C          63.4188   86.6836   13.0099 C.3     1  UNL1        0.0216
     30 C          64.1710   87.9137   13.4232 C.3     1  UNL1        0.0217
     31 C          64.2228   88.3110   14.8688 C.3     1  UNL1        0.0792
     32 N          64.5482   89.7257   15.2466 N.am    1  UNL1       -0.2720
     33 C          63.5591   90.5401   16.0268 C.2     1  UNL1        0.4019
     34 O          62.2446   89.9397   16.4290 O.2     1  UNL1       -0.2264
     35 H          65.4109   90.1197   14.9826 H       1  UNL1        0.1527
     36 O          63.8845   91.9547   16.4046 O.3     1  UNL1       -0.4291
     37 C          65.2548   92.3006   16.9070 C.3     1  UNL1        0.2447
     38 C          66.3630   92.5755   15.9342 C.ar    1  UNL1        0.0714
     39 C          66.2076   93.1684   14.5652 C.ar    1  UNL1        0.1053
     40 N          67.5698   93.2652   13.9445 N.ar    1  UNL1       -0.2350
     41 C          68.5671   92.7321   14.9300 C.ar    1  UNL1        0.1343
     42 S          67.8213   92.3059   16.1597 S.2     1  UNL1       -0.0652
     43 C          63.9491   87.2936   15.9364 C.3     1  UNL1        0.0460
     44 C          63.9198   85.8339   15.5917 C.ar    1  UNL1       -0.0205
     45 C          65.0963   85.2005   14.9103 C.ar    1  UNL1       -0.0042
     46 C          65.0669   83.7409   14.5656 C.ar    1  UNL1       -0.0003
     47 C          63.8610   82.9149   14.9023 C.ar    1  UNL1       -0.0000
     48 C          62.6844   83.5484   15.5837 C.ar    1  UNL1       -0.0003
     49 C          62.7138   85.0079   15.9284 C.ar    1  UNL1       -0.0042
     50 C          61.7763   85.4896   11.3892 C.3     1  UNL1        0.0459
     51 C          62.5365   84.2158   11.1668 C.ar    1  UNL1       -0.0205
     52 C          63.6550   84.1746   10.1682 C.ar    1  UNL1       -0.0042
     53 C          64.4153   82.9008    9.9458 C.ar    1  UNL1       -0.0003
     54 C          64.0571   81.6683   10.7220 C.ar    1  UNL1       -0.0000
     55 C          62.9387   81.7095   11.7208 C.ar    1  UNL1       -0.0003
     56 C          62.1784   82.9833   11.9432 C.ar    1  UNL1       -0.0042
@<TRIPOS>BOND
     1    19    20    1
     2    20    21    1
     3    20    14    1
     4    14    15   ar
     5    15    16   ar
     6    16    13    1
     7    13     7    1
     8     7     8    1
     9     7     9   am
    10     9    10    2
    11     9    11   am
    12    11     6    1
    13     6    22    1
    14    22    23    1
    15    23    24   ar
    16    24    25   ar
    17    25    26   ar
    18    26    27   ar
    19     6     2    1
    20     2     3    2
    21     2     4   am
    22     4     1    1
    23     1    29    1
    24    29    30    1
    25    31    30    1
    26    31    43    1
    27    43    44    1
    28    44    45   ar
    29    45    46   ar
    30    46    47   ar
    31    47    48   ar
    32    48    49   ar
    33    31    32    1
    34    32    33   am
    35    33    34    2
    36    33    36    1
    37    36    37    1
    38    37    38    1
    39    38    39   ar
    40    39    40   ar
    41    40    41   ar
    42    41    42   ar
    43     1    50    1
    44    50    51    1
    45    51    52   ar
    46    52    53   ar
    47    53    54   ar
    48    54    55   ar
    49    55    56   ar
    50    16    17   ar
    51    17    18   ar
    52    18    14   ar
    53    27    23   ar
    54    49    44   ar
    55    42    38   ar
    56    56    51   ar
    57    11    12    1
    58    27    28    1
    59     4     5    1
    60    32    35    1
@<TRIPOS>MOLECULE
*****
 56 60 0 0 0
SMALL
GASTEIGER

@<TRIPOS>ATOM
      1 C          62.1697   86.4025   10.4511 C.3     1  UNL1        0.0760
      2 C          62.7082   88.8096   11.2670 C.2     1  UNL1        0.2407
      3 O          62.7923   89.2735    9.8431 O.2     1  UNL1       -0.2733
      4 N          62.3969   87.3741   11.5711 N.am    1  UNL1       -0.3043
      5 H          62.3418   87.0696   12.5057 H       1  UNL1        0.1494
      6 C          62.9355   89.7812   12.3870 C.3     1  UNL1        0.1556
      7 N          65.9111   91.8883   13.9542 N.am    1  UNL1       -0.2567
      8 C          66.2033   92.6973   15.1831 C.3     1  UNL1        0.1168
      9 C          64.5694   91.2393   13.7850 C.2     1  UNL1        0.3046
     10 O          63.5199   91.3992   14.8448 O.2     1  UNL1       -0.2526
     11 N          64.2772   90.4303   12.5562 N.am    1  UNL1       -0.2821
     12 H          64.9660   90.3253   11.8607 H       1  UNL1        0.1514
     13 C          66.9605   91.7283   12.8944 C.3     1  UNL1        0.1413
     14 C          66.7890   94.7082   10.4131 C.ar    1  UNL1        0.0875
     15 N          66.5200   94.1091   11.7617 N.ar    1  UNL1       -0.2453
     16 C          67.0252   92.6968   11.7507 C.ar    1  UNL1        0.0858
     17 C          67.6065   92.4230   10.3953 C.ar    1  UNL1        0.0530
     18 S          67.4605   93.6660    9.5686 S.2     1  UNL1       -0.0705
     19 C          65.3509   96.8553   10.6808 C.3     1  UNL1        0.0069
     20 C          66.4467   96.1042    9.9842 C.3     1  UNL1        0.0465
     21 C          67.2001   96.7491    8.8588 C.3     1  UNL1        0.0069
     22 C          61.8211   90.1037   13.3378 C.3     1  UNL1        0.0742
     23 C          60.4053   89.7642   12.9768 C.ar    1  UNL1        0.0563
     24 C          59.6986   90.1585   11.7139 C.ar    1  UNL1        0.1131
     25 N          58.3042   89.6088   11.7719 N.ar    1  UNL1       -0.2229
     26 C          58.1491   88.8746   13.0708 C.ar    1  UNL1        0.1748
     27 N          59.4477   88.9707   13.8154 N.ar    1  UNL1       -0.3381
     28 H          59.6380   88.5813   14.6994 H       1  UNL1        0.1672
     29 C          62.2431   84.9271   10.7116 C.3     1  UNL1        0.0216
     30 C          63.4923   84.1676   10.3758 C.3     1  UNL1        0.0217
     31 C          64.0410   83.1612   11.3434 C.3     1  UNL1        0.0792
     32 N          64.9617   83.6020   12.4425 N.am    1  UNL1       -0.2720
     33 C          64.4400   84.4546   13.5611 C.2     1  UNL1        0.4019
     34 O          62.9977   84.8663   13.5805 O.2     1  UNL1       -0.2264
     35 H          65.9083   83.3318   12.4298 H       1  UNL1        0.1527
     36 O          65.3606   84.8954   14.6602 O.3     1  UNL1       -0.4291
     37 C          65.2966   86.3037   15.1725 C.3     1  UNL1        0.2447
     38 C          64.1091   86.7594   15.9676 C.ar    1  UNL1        0.0714
     39 C          63.5240   88.1405   15.9657 C.ar    1  UNL1        0.1053
     40 N          62.3515   88.1486   16.9011 N.ar    1  UNL1       -0.2350
     41 C          62.2119   86.7724   17.4813 C.ar    1  UNL1        0.1343
     42 S          63.2982   85.9138   16.9043 S.2     1  UNL1       -0.0652
     43 C          63.6691   81.7140   11.2118 C.3     1  UNL1        0.0460
     44 C          62.7729   81.0743   12.2305 C.ar    1  UNL1       -0.0205
     45 C          61.9492   81.9293   13.1472 C.ar    1  UNL1       -0.0042
     46 C          61.0531   81.2896   14.1658 C.ar    1  UNL1       -0.0003
     47 C          60.9807   79.7948   14.2678 C.ar    1  UNL1       -0.0000
     48 C          61.8044   78.9398   13.3511 C.ar    1  UNL1       -0.0003
     49 C          62.7005   79.5795   12.3324 C.ar    1  UNL1       -0.0042
     50 C          61.8690   86.9063    9.0705 C.3     1  UNL1        0.0459
     51 C          61.7672   85.9422    7.9260 C.ar    1  UNL1       -0.0205
     52 C          63.0108   85.3566    7.3258 C.ar    1  UNL1       -0.0042
     53 C          62.9090   84.3924    6.1812 C.ar    1  UNL1       -0.0003
     54 C          61.5635   84.0139    5.6368 C.ar    1  UNL1       -0.0000
     55 C          60.3198   84.5996    6.2370 C.ar    1  UNL1       -0.0003
     56 C          60.4216   85.5637    7.3816 C.ar    1  UNL1       -0.0042
@<TRIPOS>BOND
     1    19    20    1
     2    20    21    1
     3    20    14    1
     4    14    15   ar
     5    15    16   ar
     6    16    13    1
     7    13     7    1
     8     7     8    1
     9     7     9   am
    10     9    10    2
    11     9    11   am
    12    11     6    1
    13     6    22    1
    14    22    23    1
    15    23    24   ar
    16    24    25   ar
    17    25    26   ar
    18    26    27   ar
    19     6     2    1
    20     2     3    2
    21     2     4   am
    22     4     1    1
    23     1    29    1
    24    29    30    1
    25    31    30    1
    26    31    43    1
    27    43    44    1
    28    44    45   ar
    29    45    46   ar
    30    46    47   ar
    31    47    48   ar
    32    48    49   ar
    33    31    32    1
    34    32    33   am
    35    33    34    2
    36    33    36    1
    37    36    37    1
    38    37    38    1
    39    38    39   ar
    40    39    40   ar
    41    40    41   ar
    42    41    42   ar
    43     1    50    1
    44    50    51    1
    45    51    52   ar
    46    52    53   ar
    47    53    54   ar
    48    54    55   ar
    49    55    56   ar
    50    16    17   ar
    51    17    18   ar
    52    18    14   ar
    53    27    23   ar
    54    49    44   ar
    55    42    38   ar
    56    56    51   ar
    57    11    12    1
    58    27    28    1
    59     4     5    1
    60    32    35    1
@<TRIPOS>MOLECULE
*****
 56 60 0 0 0
SMALL
GASTEIGER

@<TRIPOS>ATOM
      1 C          62.3546   86.5730   10.6506 C.3     1  UNL1        0.0760
      2 C          62.8904   88.8704   11.7391 C.2     1  UNL1        0.2407
      3 O          63.1948   89.4407   10.3856 O.2     1  UNL1       -0.2733
      4 N          62.4703   87.4365   11.8716 N.am    1  UNL1       -0.3043
      5 H          62.2706   87.0622   12.7600 H       1  UNL1        0.1494
      6 C          63.0062   89.7339   12.9601 C.3     1  UNL1        0.1556
      7 N          65.7905   91.7553   14.9379 N.am    1  UNL1       -0.2567
      8 C          65.9604   92.4657   16.2481 C.3     1  UNL1        0.1168
      9 C          64.4833   91.0998   14.6041 C.2     1  UNL1        0.3046
     10 O          63.3459   91.1547   15.5805 O.2     1  UNL1       -0.2526
     11 N          64.3135   90.3895   13.2940 N.am    1  UNL1       -0.2821
     12 H          65.0600   90.3534   12.6532 H       1  UNL1        0.1514
     13 C          66.9279   91.7004   13.9615 C.3     1  UNL1        0.1413
     14 C          67.3242   93.3596   10.4750 C.ar    1  UNL1        0.0875
     15 N          67.6712   92.2838   11.4610 N.ar    1  UNL1       -0.2453
     16 C          66.8874   92.5343   12.7152 C.ar    1  UNL1        0.0858
     17 C          66.0560   93.7648   12.5043 C.ar    1  UNL1        0.0530
     18 S          66.3259   94.2749   11.1198 S.2     1  UNL1       -0.0705
     19 C          68.7491   92.4158    8.5182 C.3     1  UNL1        0.0069
     20 C          67.8782   93.4962    9.0877 C.3     1  UNL1        0.0465
     21 C          67.5612   94.7131    8.2700 C.3     1  UNL1        0.0069
     22 C          61.8147   89.9419   13.8473 C.3     1  UNL1        0.0742
     23 C          60.4316   89.7266   13.3084 C.ar    1  UNL1        0.0563
     24 C          59.3388   88.9423   13.9723 C.ar    1  UNL1        0.1131
     25 N          58.1302   88.9888   13.0851 N.ar    1  UNL1       -0.2229
     26 C          58.4760   89.8017   11.8728 C.ar    1  UNL1        0.1748
     27 N          59.8983   90.2577   12.0109 N.ar    1  UNL1       -0.3381
     28 H          60.3947   90.8088   11.3635 H       1  UNL1        0.1672
     29 C          62.2262   85.0854   10.7934 C.3     1  UNL1        0.0216
     30 C          63.3087   84.1859   10.2747 C.3     1  UNL1        0.0217
     31 C          63.9631   83.1945   11.1907 C.3     1  UNL1        0.0792
     32 N          64.9479   83.6618   12.2212 N.am    1  UNL1       -0.2720
     33 C          64.4602   84.2455   13.5141 C.2     1  UNL1        0.4019
     34 O          62.9880   84.3618   13.7765 O.2     1  UNL1       -0.2264
     35 H          65.9142   83.5855   12.0490 H       1  UNL1        0.1527
     36 O          65.4450   84.7128   14.5447 O.3     1  UNL1       -0.4291
     37 C          65.3520   86.1057   15.0935 C.3     1  UNL1        0.2447
     38 C          64.1906   86.4947   15.9593 C.ar    1  UNL1        0.0714
     39 C          63.6013   87.8690   16.0789 C.ar    1  UNL1        0.1053
     40 N          62.4610   87.8014   17.0510 N.ar    1  UNL1       -0.2350
     41 C          62.3454   86.3854   17.5323 C.ar    1  UNL1        0.1343
     42 S          63.4144   85.5779   16.8576 S.2     1  UNL1       -0.0652
     43 C          63.6328   81.7359   11.0761 C.3     1  UNL1        0.0460
     44 C          62.7788   81.0761   12.1180 C.ar    1  UNL1       -0.0205
     45 C          62.7937   79.5834   12.2648 C.ar    1  UNL1       -0.0042
     46 C          61.9397   78.9238   13.3067 C.ar    1  UNL1       -0.0003
     47 C          61.0709   79.7568   14.2017 C.ar    1  UNL1       -0.0000
     48 C          61.0560   81.2495   14.0549 C.ar    1  UNL1       -0.0003
     49 C          61.9100   81.9092   13.0131 C.ar    1  UNL1       -0.0042
     50 C          62.3672   87.1972    9.2866 C.3     1  UNL1        0.0459
     51 C          61.0746   87.4998    8.5883 C.ar    1  UNL1       -0.0205
     52 C          60.6513   88.9232    8.3778 C.ar    1  UNL1       -0.0042
     53 C          59.3587   89.2258    7.6794 C.ar    1  UNL1       -0.0003
     54 C          58.4895   88.1049    7.1917 C.ar    1  UNL1       -0.0000
     55 C          58.9128   86.6813    7.4022 C.ar    1  UNL1       -0.0003
     56 C          60.2054   86.3788    8.1005 C.ar    1  UNL1       -0.0042
@<TRIPOS>BOND
     1    19    20    1
     2    20    21    1
     3    20    14    1
     4    14    15   ar
     5    15    16   ar
     6    16    13    1
     7    13     7    1
     8     7     8    1
     9     7     9   am
    10     9    10    2
    11     9    11   am
    12    11     6    1
    13     6    22    1
    14    22    23    1
    15    23    24   ar
    16    24    25   ar
    17    25    26   ar
    18    26    27   ar
    19     6     2    1
    20     2     3    2
    21     2     4   am
    22     4     1    1
    23     1    29    1
    24    29    30    1
    25    31    30    1
    26    31    43    1
    27    43    44    1
    28    44    45   ar
    29    45    46   ar
    30    46    47   ar
    31    47    48   ar
    32    48    49   ar
    33    31    32    1
    34    32    33   am
    35    33    34    2
    36    33    36    1
    37    36    37    1
    38    37    38    1
    39    38    39   ar
    40    39    40   ar
    41    40    41   ar
    42    41    42   ar
    43     1    50    1
    44    50    51    1
    45    51    52   ar
    46    52    53   ar
    47    53    54   ar
    48    54    55   ar
    49    55    56   ar
    50    16    17   ar
    51    17    18   ar
    52    18    14   ar
    53    27    23   ar
    54    49    44   ar
    55    42    38   ar
    56    56    51   ar
    57    11    12    1
    58    27    28    1
    59     4     5    1
    60    32    35    1
@<TRIPOS>MOLECULE
*****
 56 60 0 0 0
SMALL
GASTEIGER

@<TRIPOS>ATOM
      1 C          62.4492   86.3710   10.7480 C.3     1  UNL1        0.0760
      2 C          61.5759   88.8178   10.7237 C.2     1  UNL1        0.2407
      3 O          61.1995   88.6692    9.2794 O.2     1  UNL1       -0.2733
      4 N          62.2007   87.6688   11.4581 N.am    1  UNL1       -0.3043
      5 H          62.4478   87.7663   12.4061 H       1  UNL1        0.1494
      6 C          61.3274   90.1156   11.4338 C.3     1  UNL1        0.1556
      7 N          64.5643   92.3980   11.1840 N.am    1  UNL1       -0.2567
      8 C          65.4911   92.9407   10.1368 C.3     1  UNL1        0.1168
      9 C          63.4093   91.5281   10.7853 C.2     1  UNL1        0.3046
     10 O          63.1809   91.2009    9.3393 O.2     1  UNL1       -0.2526
     11 N          62.4825   90.9855   11.8325 N.am    1  UNL1       -0.2821
     12 H          62.6324   91.2003   12.7815 H       1  UNL1        0.1514
     13 C          64.7927   92.7253   12.6299 C.3     1  UNL1        0.1413
     14 C          68.0386   92.7003   14.7582 C.ar    1  UNL1        0.0875
     15 N          66.5998   93.0793   14.5675 N.ar    1  UNL1       -0.2453
     16 C          66.1597   92.5688   13.2275 C.ar    1  UNL1        0.0858
     17 C          67.3264   91.8744   12.5899 C.ar    1  UNL1        0.0530
     18 S          68.4876   91.9557   13.5359 S.2     1  UNL1       -0.0705
     19 C          69.3445   94.4163   16.2074 C.3     1  UNL1        0.0069
     20 C          68.8805   93.0114   15.9600 C.3     1  UNL1        0.0465
     21 C          69.2583   91.9177   16.9145 C.3     1  UNL1        0.0069
     22 C          59.9238   90.5433   11.7452 C.3     1  UNL1        0.0742
     23 C          59.0385   89.6631   12.5767 C.ar    1  UNL1        0.0563
     24 C          59.3551   89.1337   13.9439 C.ar    1  UNL1        0.1131
     25 N          58.1934   88.3012   14.3992 N.ar    1  UNL1       -0.2229
     26 C          57.1587   88.3161   13.3133 C.ar    1  UNL1        0.1748
     27 N          57.6810   89.1578   12.1869 N.ar    1  UNL1       -0.3381
     28 H          57.2147   89.3456   11.3404 H       1  UNL1        0.1672
     29 C          62.1035   85.0729   11.4152 C.3     1  UNL1        0.0216
     30 C          63.1813   84.0741   11.7163 C.3     1  UNL1        0.0217
     31 C          63.2942   83.4838   13.0908 C.3     1  UNL1        0.0792
     32 N          63.9587   84.2608   14.1884 N.am    1  UNL1       -0.2720
     33 C          63.1366   84.8386   15.3021 C.2     1  UNL1        0.4019
     34 O          61.6500   84.6394   15.3182 O.2     1  UNL1       -0.2264
     35 H          64.9345   84.3915   14.1778 H       1  UNL1        0.1527
     36 O          63.8011   85.6155   16.3997 O.3     1  UNL1       -0.4291
     37 C          63.2053   86.9094   16.8695 C.3     1  UNL1        0.2447
     38 C          63.5008   88.1823   16.1330 C.ar    1  UNL1        0.0714
     39 C          63.0996   89.5626   16.5620 C.ar    1  UNL1        0.1053
     40 N          63.6002   90.5318   15.5324 N.ar    1  UNL1       -0.2350
     41 C          64.3106   89.7506   14.4671 C.ar    1  UNL1        0.1343
     42 S          64.2492   88.2985   14.8383 S.2     1  UNL1       -0.0652
     43 C          62.7425   82.1167   13.3675 C.3     1  UNL1        0.0460
     44 C          62.7819   81.0621   12.3015 C.ar    1  UNL1       -0.0205
     45 C          63.1359   81.4333   10.8920 C.ar    1  UNL1       -0.0042
     46 C          63.1752   80.3787    9.8261 C.ar    1  UNL1       -0.0003
     47 C          62.8607   78.9529   10.1697 C.ar    1  UNL1       -0.0000
     48 C          62.5067   78.5817   11.5792 C.ar    1  UNL1       -0.0003
     49 C          62.4674   79.6363   12.6451 C.ar    1  UNL1       -0.0042
     50 C          63.0435   86.3715    9.3707 C.3     1  UNL1        0.0459
     51 C          62.3158   85.7071    8.2397 C.ar    1  UNL1       -0.0205
     52 C          63.0633   84.8308    7.2789 C.ar    1  UNL1       -0.0042
     53 C          62.3357   84.1664    6.1480 C.ar    1  UNL1       -0.0003
     54 C          60.8606   84.3783    5.9778 C.ar    1  UNL1       -0.0000
     55 C          60.1130   85.2547    6.9386 C.ar    1  UNL1       -0.0003
     56 C          60.8406   85.9191    8.0696 C.ar    1  UNL1       -0.0042
@<TRIPOS>BOND
     1    19    20    1
     2    20    21    1
     3    20    14    1
     4    14    15   ar
     5    15    16   ar
     6    16    13    1
     7    13     7    1
     8     7     8    1
     9     7     9   am
    10     9    10    2
    11     9    11   am
    12    11     6    1
    13     6    22    1
    14    22    23    1
    15    23    24   ar
    16    24    25   ar
    17    25    26   ar
    18    26    27   ar
    19     6     2    1
    20     2     3    2
    21     2     4   am
    22     4     1    1
    23     1    29    1
    24    29    30    1
    25    31    30    1
    26    31    43    1
    27    43    44    1
    28    44    45   ar
    29    45    46   ar
    30    46    47   ar
    31    47    48   ar
    32    48    49   ar
    33    31    32    1
    34    32    33   am
    35    33    34    2
    36    33    36    1
    37    36    37    1
    38    37    38    1
    39    38    39   ar
    40    39    40   ar
    41    40    41   ar
    42    41    42   ar
    43     1    50    1
    44    50    51    1
    45    51    52   ar
    46    52    53   ar
    47    53    54   ar
    48    54    55   ar
    49    55    56   ar
    50    16    17   ar
    51    17    18   ar
    52    18    14   ar
    53    27    23   ar
    54    49    44   ar
    55    42    38   ar
    56    56    51   ar
    57    11    12    1
    58    27    28    1
    59     4     5    1
    60    32    35    1
