@<TRIPOS>MOLECULE
*****
 38 41 0 0 0
SMALL
GASTEIGER

@<TRIPOS>ATOM
      1 C          62.6701   89.4227   12.0114 C.3     1  UNL1        0.0791
      2 C          63.0543   88.3446   12.9810 C.ar    1  UNL1        0.0374
      3 C          63.2778   86.9434   12.4947 C.ar    1  UNL1        0.0023
      4 C          63.6620   85.8652   13.4643 C.ar    1  UNL1        0.0181
      5 C          63.8855   84.4640   12.9779 C.ar    1  UNL1        0.0082
      6 C          64.2697   83.3860   13.9475 C.ar    1  UNL1        0.0347
      7 BR         64.4932   81.9846   13.4612 Br      1  UNL1       -0.0490
      8 C          64.4304   83.7091   15.4035 C.ar    1  UNL1        0.0082
      9 C          64.2069   85.1104   15.8898 C.ar    1  UNL1        0.0197
     10 C          63.8227   86.1884   14.9202 C.ar    1  UNL1        0.0844
     11 N          63.5992   87.5897   15.4065 N.ar    1  UNL1       -0.2119
     12 C          63.2150   88.6678   14.4369 C.ar    1  UNL1        0.2211
     13 O          62.9915   90.0691   14.9232 O.3     1  UNL1       -0.4563
     14 C          63.5753   90.5107   16.2325 C.3     1  UNL1        0.2542
     15 C          65.5323   92.7817   11.1312 C.ar    1  UNL1        0.1067
     16 C          64.5000   92.3904   10.1156 C.ar    1  UNL1        0.0252
     17 C          63.5460   91.2707   10.4090 C.ar    1  UNL1       -0.0003
     18 C          63.6241   90.5424   11.7180 C.ar    1  UNL1        0.0035
     19 C          64.6563   90.9337   12.7336 C.ar    1  UNL1        0.0955
     20 N          65.6104   92.0534   12.4402 N.ar    1  UNL1       -0.2380
     21 S          66.4863   93.9014   10.8379 S.3     1  UNL1       -0.0950
     22 C          68.2092   92.4407    9.5541 C.3     1  UNL1        0.0130
     23 C          67.5064   93.7515    9.7483 C.3     1  UNL1        0.0637
     24 C          61.3318   89.3811   11.3352 C.3     1  UNL1        0.1159
     25 O          60.9950   90.7211   11.9192 O.3     1  UNL1       -0.3820
     26 H          60.2342   90.6325   12.5144 H       1  UNL1        0.2107
     27 C          61.6685   88.0412   10.7512 C.ar    1  UNL1        0.0046
     28 C          60.9726   86.8094   11.2497 C.ar    1  UNL1       -0.0019
     29 C          61.3093   85.4695   10.6656 C.ar    1  UNL1        0.0021
     30 C          62.3419   85.3612    9.5831 C.ar    1  UNL1        0.0296
     31 C          63.0379   86.5929    9.0847 C.ar    1  UNL1        0.1399
     32 F          64.0706   86.4847    8.0021 F       1  UNL1       -0.2042
     33 C          62.7011   87.9329    9.6687 C.ar    1  UNL1        0.0276
     34 C          59.9935   89.3395   10.6590 C.3     1  UNL1        0.0491
     35 C          59.8393   89.8772    9.2673 C.3     1  UNL1        0.0750
     36 N          59.4821   88.9527    8.1413 N.3     1  UNL1       -0.2702
     37 C          59.4298   89.4697    6.7343 C.3     1  UNL1        0.0897
     38 C          59.1773   87.5112    8.4225 C.3     1  UNL1        0.0897
@<TRIPOS>BOND
     1    22    23    1
     2    23    21    1
     3    21    15    1
     4    15    16   ar
     5    16    17   ar
     6    17    18   ar
     7     1    18    1
     8     1     2    1
     9     2     3   ar
    10     3     4   ar
    11     4     5   ar
    12     5     6   ar
    13     6     7    1
    14     6     8   ar
    15     8     9   ar
    16     9    10   ar
    17    10    11   ar
    18    11    12   ar
    19    12    13    1
    20    13    14    1
    21     1    24    1
    22    24    25    1
    23    24    34    1
    24    34    35    1
    25    35    36    1
    26    36    37    1
    27    36    38    1
    28    24    27    1
    29    27    28   ar
    30    28    29   ar
    31    29    30   ar
    32    30    31   ar
    33    31    32    1
    34    31    33   ar
    35    18    19   ar
    36    19    20   ar
    37    20    15   ar
    38    12     2   ar
    39    33    27   ar
    40    10     4   ar
    41    25    26    1
@<TRIPOS>MOLECULE
*****
 38 41 0 0 0
SMALL
GASTEIGER

@<TRIPOS>ATOM
      1 C          62.7631   88.4650   11.4544 C.3     1  UNL1        0.0791
      2 C          63.4544   89.7424   11.8294 C.ar    1  UNL1        0.0374
      3 C          64.1877   90.5325   10.7863 C.ar    1  UNL1        0.0023
      4 C          64.8790   91.8098   11.1613 C.ar    1  UNL1        0.0181
      5 C          65.6122   92.6000   10.1183 C.ar    1  UNL1        0.0082
      6 C          66.3034   93.8773   10.4933 C.ar    1  UNL1        0.0347
      7 BR         67.0368   94.6675    9.4502 Br      1  UNL1       -0.0490
      8 C          66.2614   94.3644   11.9114 C.ar    1  UNL1        0.0082
      9 C          65.5281   93.5743   12.9544 C.ar    1  UNL1        0.0197
     10 C          64.8369   92.2970   12.5794 C.ar    1  UNL1        0.0844
     11 N          64.1036   91.5068   13.6225 N.ar    1  UNL1       -0.2119
     12 C          63.4124   90.2295   13.2474 C.ar    1  UNL1        0.2211
     13 O          62.6791   89.4393   14.2905 O.3     1  UNL1       -0.4563
     14 C          63.0101   89.6241   15.7418 C.3     1  UNL1        0.2542
     15 C          63.2462   84.8056   14.0283 C.ar    1  UNL1        0.1067
     16 C          64.0708   86.0286   14.3011 C.ar    1  UNL1        0.0252
     17 C          63.9098   87.2484   13.4431 C.ar    1  UNL1       -0.0003
     18 C          62.9242   87.2452   12.3123 C.ar    1  UNL1        0.0035
     19 C          62.0996   86.0223   12.0396 C.ar    1  UNL1        0.0955
     20 N          62.2606   84.8024   12.8976 N.ar    1  UNL1       -0.2380
     21 S          63.4073   83.5858   14.8863 S.3     1  UNL1       -0.0950
     22 C          61.8576   81.5927   14.2732 C.3     1  UNL1        0.0130
     23 C          63.2194   82.2211   14.2927 C.3     1  UNL1        0.0637
     24 C          61.9108   88.4075   10.2214 C.3     1  UNL1        0.1159
     25 O          63.0208   87.7162    9.4864 O.3     1  UNL1       -0.3820
     26 H          63.3191   88.2749    8.7517 H       1  UNL1        0.2107
     27 C          60.8009   89.0987   10.9564 C.ar    1  UNL1        0.0046
     28 C          60.4718   90.5287   10.6452 C.ar    1  UNL1       -0.0019
     29 C          59.3619   91.2199   11.3802 C.ar    1  UNL1        0.0021
     30 C          58.5810   90.4812   12.4264 C.ar    1  UNL1        0.0296
     31 C          58.9101   89.0513   12.7376 C.ar    1  UNL1        0.1399
     32 F          58.1293   88.3125   13.7838 F       1  UNL1       -0.2042
     33 C          60.0201   88.3600   12.0026 C.ar    1  UNL1        0.0276
     34 C          61.0585   88.3500    8.9884 C.3     1  UNL1        0.0491
     35 C          60.3140   87.0928    8.6493 C.3     1  UNL1        0.0750
     36 N          61.0179   85.9710    7.9450 N.3     1  UNL1       -0.2702
     37 C          60.3597   85.2825    6.7863 C.3     1  UNL1        0.0897
     38 C          62.3801   85.5376    8.3995 C.3     1  UNL1        0.0897
@<TRIPOS>BOND
     1    22    23    1
     2    23    21    1
     3    21    15    1
     4    15    16   ar
     5    16    17   ar
     6    17    18   ar
     7     1    18    1
     8     1     2    1
     9     2     3   ar
    10     3     4   ar
    11     4     5   ar
    12     5     6   ar
    13     6     7    1
    14     6     8   ar
    15     8     9   ar
    16     9    10   ar
    17    10    11   ar
    18    11    12   ar
    19    12    13    1
    20    13    14    1
    21     1    24    1
    22    24    25    1
    23    24    34    1
    24    34    35    1
    25    35    36    1
    26    36    37    1
    27    36    38    1
    28    24    27    1
    29    27    28   ar
    30    28    29   ar
    31    29    30   ar
    32    30    31   ar
    33    31    32    1
    34    31    33   ar
    35    18    19   ar
    36    19    20   ar
    37    20    15   ar
    38    12     2   ar
    39    33    27   ar
    40    10     4   ar
    41    25    26    1
@<TRIPOS>MOLECULE
*****
 38 41 0 0 0
SMALL
GASTEIGER

@<TRIPOS>ATOM
      1 C          62.3667   89.0125   11.9788 C.3     1  UNL1        0.0791
      2 C          62.8657   87.7272   12.5697 C.ar    1  UNL1        0.0374
      3 C          62.6361   86.4316   11.8495 C.ar    1  UNL1        0.0023
      4 C          63.1350   85.1463   12.4405 C.ar    1  UNL1        0.0181
      5 C          62.9054   83.8507   11.7203 C.ar    1  UNL1        0.0082
      6 C          63.4044   82.5656   12.3113 C.ar    1  UNL1        0.0347
      7 BR         63.1748   81.2699   11.5911 Br      1  UNL1       -0.0490
      8 C          64.1330   82.5760   13.6224 C.ar    1  UNL1        0.0082
      9 C          64.3626   83.8715   14.3426 C.ar    1  UNL1        0.0197
     10 C          63.8636   85.1567   13.7516 C.ar    1  UNL1        0.0844
     11 N          64.0932   86.4524   14.4718 N.ar    1  UNL1       -0.2119
     12 C          63.5943   87.7376   13.8808 C.ar    1  UNL1        0.2211
     13 O          63.8239   89.0333   14.6010 O.3     1  UNL1       -0.4563
     14 C          63.3576   89.1970   16.0173 C.3     1  UNL1        0.2542
     15 C          65.2308   92.3973   11.2110 C.ar    1  UNL1        0.1067
     16 C          64.2749   91.9657   10.1385 C.ar    1  UNL1        0.0252
     17 C          63.3202   90.8375   10.3945 C.ar    1  UNL1       -0.0003
     18 C          63.3214   90.1407   11.7228 C.ar    1  UNL1        0.0035
     19 C          64.2772   90.5723   12.7953 C.ar    1  UNL1        0.0955
     20 N          65.2319   91.7006   12.5393 N.ar    1  UNL1       -0.2380
     21 S          66.1855   93.5256   10.9550 S.3     1  UNL1       -0.0950
     22 C          68.1474   92.3560    9.7170 C.3     1  UNL1        0.0130
     23 C          67.1326   93.4579    9.7938 C.3     1  UNL1        0.0637
     24 C          60.9130   89.1694   11.6438 C.3     1  UNL1        0.1159
     25 O          60.7445   90.0978   12.8098 O.3     1  UNL1       -0.3820
     26 H          60.1289   89.7059   13.4488 H       1  UNL1        0.2107
     27 C          61.0815   88.2410   10.4777 C.ar    1  UNL1        0.0046
     28 C          62.4557   87.9028    9.9808 C.ar    1  UNL1       -0.0019
     29 C          62.6242   86.9744    8.8147 C.ar    1  UNL1        0.0021
     30 C          61.4184   86.3842    8.1456 C.ar    1  UNL1        0.0296
     31 C          60.0442   86.7224    8.6426 C.ar    1  UNL1        0.1399
     32 F          58.8383   86.1321    7.9735 F       1  UNL1       -0.2042
     33 C          59.8757   87.6508    9.8087 C.ar    1  UNL1        0.0276
     34 C          59.4593   89.3263   11.3088 C.3     1  UNL1        0.0491
     35 C          58.4959   89.8033   12.3548 C.3     1  UNL1        0.0750
     36 N          57.9402   88.8374   13.3590 N.3     1  UNL1       -0.2702
     37 C          56.5863   88.2285   13.1445 C.3     1  UNL1        0.0897
     38 C          58.7385   88.4803   14.5776 C.3     1  UNL1        0.0897
@<TRIPOS>BOND
     1    22    23    1
     2    23    21    1
     3    21    15    1
     4    15    16   ar
     5    16    17   ar
     6    17    18   ar
     7     1    18    1
     8     1     2    1
     9     2     3   ar
    10     3     4   ar
    11     4     5   ar
    12     5     6   ar
    13     6     7    1
    14     6     8   ar
    15     8     9   ar
    16     9    10   ar
    17    10    11   ar
    18    11    12   ar
    19    12    13    1
    20    13    14    1
    21     1    24    1
    22    24    25    1
    23    24    34    1
    24    34    35    1
    25    35    36    1
    26    36    37    1
    27    36    38    1
    28    24    27    1
    29    27    28   ar
    30    28    29   ar
    31    29    30   ar
    32    30    31   ar
    33    31    32    1
    34    31    33   ar
    35    18    19   ar
    36    19    20   ar
    37    20    15   ar
    38    12     2   ar
    39    33    27   ar
    40    10     4   ar
    41    25    26    1
@<TRIPOS>MOLECULE
*****
 38 41 0 0 0
SMALL
GASTEIGER

@<TRIPOS>ATOM
      1 C          61.7482   87.5422   10.0086 C.3     1  UNL1        0.0791
      2 C          62.2238   86.1464   10.2837 C.ar    1  UNL1        0.0374
      3 C          62.0709   85.5587   11.6552 C.ar    1  UNL1        0.0023
      4 C          62.5466   84.1629   11.9304 C.ar    1  UNL1        0.0181
      5 C          62.3936   83.5751   13.3019 C.ar    1  UNL1        0.0082
      6 C          62.8693   82.1794   13.5770 C.ar    1  UNL1        0.0347
      7 BR         62.7163   81.5915   14.9485 Br      1  UNL1       -0.0490
      8 C          63.4979   81.3715   12.4805 C.ar    1  UNL1        0.0082
      9 C          63.6508   81.9593   11.1090 C.ar    1  UNL1        0.0197
     10 C          63.1751   83.3550   10.8339 C.ar    1  UNL1        0.0844
     11 N          63.3281   83.9428    9.4624 N.ar    1  UNL1       -0.2119
     12 C          62.8524   85.3385    9.1873 C.ar    1  UNL1        0.2211
     13 O          63.0053   85.9264    7.8157 O.3     1  UNL1       -0.4563
     14 C          62.7844   85.0703    6.6040 C.3     1  UNL1        0.2542
     15 C          63.9939   91.0581   11.6953 C.ar    1  UNL1        0.1067
     16 C          63.5206   91.0832   10.2721 C.ar    1  UNL1        0.0252
     17 C          62.7721   89.9112    9.7099 C.ar    1  UNL1       -0.0003
     18 C          62.4967   88.7142   10.5708 C.ar    1  UNL1        0.0035
     19 C          62.9700   88.6890   11.9939 C.ar    1  UNL1        0.0955
     20 N          63.7186   89.8610   12.5562 N.ar    1  UNL1       -0.2380
     21 S          64.7425   92.2301   12.2575 S.3     1  UNL1       -0.0950
     22 C          66.2128   94.3322   11.8460 C.3     1  UNL1        0.0130
     23 C          65.6865   93.0048   11.3865 C.3     1  UNL1        0.0637
     24 C          60.5239   87.7659    9.1712 C.3     1  UNL1        0.1159
     25 O          61.0874   86.8702    8.1081 O.3     1  UNL1       -0.3820
     26 H          61.2300   87.3818    7.2964 H       1  UNL1        0.2107
     27 C          59.9605   88.6617   10.2343 C.ar    1  UNL1        0.0046
     28 C          59.9344   90.1471   10.0271 C.ar    1  UNL1       -0.0019
     29 C          59.3709   91.0428   11.0902 C.ar    1  UNL1        0.0021
     30 C          58.8336   90.4532   12.3605 C.ar    1  UNL1        0.0296
     31 C          58.8597   88.9678   12.5676 C.ar    1  UNL1        0.1399
     32 F          58.3223   88.3781   13.8379 F       1  UNL1       -0.2042
     33 C          59.4231   88.0721   11.5045 C.ar    1  UNL1        0.0276
     34 C          59.2997   87.9897    8.3338 C.3     1  UNL1        0.0491
     35 C          59.4316   88.2078    6.8557 C.3     1  UNL1        0.0750
     36 N          59.1588   89.5615    6.2700 N.3     1  UNL1       -0.2702
     37 C          60.2940   90.4056    5.7713 C.3     1  UNL1        0.0897
     38 C          57.7507   90.0711    6.1830 C.3     1  UNL1        0.0897
@<TRIPOS>BOND
     1    22    23    1
     2    23    21    1
     3    21    15    1
     4    15    16   ar
     5    16    17   ar
     6    17    18   ar
     7     1    18    1
     8     1     2    1
     9     2     3   ar
    10     3     4   ar
    11     4     5   ar
    12     5     6   ar
    13     6     7    1
    14     6     8   ar
    15     8     9   ar
    16     9    10   ar
    17    10    11   ar
    18    11    12   ar
    19    12    13    1
    20    13    14    1
    21     1    24    1
    22    24    25    1
    23    24    34    1
    24    34    35    1
    25    35    36    1
    26    36    37    1
    27    36    38    1
    28    24    27    1
    29    27    28   ar
    30    28    29   ar
    31    29    30   ar
    32    30    31   ar
    33    31    32    1
    34    31    33   ar
    35    18    19   ar
    36    19    20   ar
    37    20    15   ar
    38    12     2   ar
    39    33    27   ar
    40    10     4   ar
    41    25    26    1
@<TRIPOS>MOLECULE
*****
 38 41 0 0 0
SMALL
GASTEIGER

@<TRIPOS>ATOM
      1 C          62.2519   88.7285   11.5096 C.3     1  UNL1        0.0791
      2 C          63.1400   89.8814   11.8733 C.ar    1  UNL1        0.0374
      3 C          63.8411   90.6565   10.7973 C.ar    1  UNL1        0.0023
      4 C          64.7292   91.8094   11.1610 C.ar    1  UNL1        0.0181
      5 C          65.4303   92.5845   10.0851 C.ar    1  UNL1        0.0082
      6 C          66.3183   93.7374   10.4487 C.ar    1  UNL1        0.0347
      7 BR         67.0195   94.5125    9.3728 Br      1  UNL1       -0.0490
      8 C          66.5052   94.1152   11.8883 C.ar    1  UNL1        0.0082
      9 C          65.8041   93.3401   12.9642 C.ar    1  UNL1        0.0197
     10 C          64.9161   92.1872   12.6005 C.ar    1  UNL1        0.0844
     11 N          64.2149   91.4121   13.6765 N.ar    1  UNL1       -0.2119
     12 C          63.3269   90.2592   13.3128 C.ar    1  UNL1        0.2211
     13 O          62.6257   89.4841   14.3888 O.3     1  UNL1       -0.4563
     14 C          63.1203   89.5489   15.8034 C.3     1  UNL1        0.2542
     15 C          63.0658   84.6399   13.2039 C.ar    1  UNL1        0.1067
     16 C          61.9466   84.8368   12.2247 C.ar    1  UNL1        0.0252
     17 C          61.6754   86.1997   11.6599 C.ar    1  UNL1       -0.0003
     18 C          62.5232   87.3656   12.0744 C.ar    1  UNL1        0.0035
     19 C          63.6422   87.1687   13.0536 C.ar    1  UNL1        0.0955
     20 N          63.9136   85.8058   13.6184 N.ar    1  UNL1       -0.2380
     21 S          63.3370   83.2770   13.7687 S.3     1  UNL1       -0.0950
     22 C          61.5812   81.3801   14.0310 C.3     1  UNL1        0.0130
     23 C          62.2886   82.5812   14.5851 C.3     1  UNL1        0.0637
     24 C          61.0926   88.9385   10.5812 C.3     1  UNL1        0.1159
     25 O          60.6054   90.0644   11.4444 O.3     1  UNL1       -0.3820
     26 H          59.7364   89.8379   11.8111 H       1  UNL1        0.2107
     27 C          61.5799   87.8126    9.7181 C.ar    1  UNL1        0.0046
     28 C          63.0519   87.5743    9.5566 C.ar    1  UNL1       -0.0019
     29 C          63.5392   86.4484    8.6935 C.ar    1  UNL1        0.0021
     30 C          62.5544   85.5609    7.9918 C.ar    1  UNL1        0.0296
     31 C          61.0823   85.7993    8.1533 C.ar    1  UNL1        0.1399
     32 F          60.0974   84.9117    7.4516 F       1  UNL1       -0.2042
     33 C          60.5950   86.9251    9.0164 C.ar    1  UNL1        0.0276
     34 C          59.9333   89.1485    9.6529 C.3     1  UNL1        0.0491
     35 C          60.1303   89.8866    8.3620 C.3     1  UNL1        0.0750
     36 N          59.4077   89.4410    7.1254 N.3     1  UNL1       -0.2702
     37 C          59.4761   90.2698    5.8770 C.3     1  UNL1        0.0897
     38 C          58.6167   88.1667    7.1371 C.3     1  UNL1        0.0897
@<TRIPOS>BOND
     1    22    23    1
     2    23    21    1
     3    21    15    1
     4    15    16   ar
     5    16    17   ar
     6    17    18   ar
     7     1    18    1
     8     1     2    1
     9     2     3   ar
    10     3     4   ar
    11     4     5   ar
    12     5     6   ar
    13     6     7    1
    14     6     8   ar
    15     8     9   ar
    16     9    10   ar
    17    10    11   ar
    18    11    12   ar
    19    12    13    1
    20    13    14    1
    21     1    24    1
    22    24    25    1
    23    24    34    1
    24    34    35    1
    25    35    36    1
    26    36    37    1
    27    36    38    1
    28    24    27    1
    29    27    28   ar
    30    28    29   ar
    31    29    30   ar
    32    30    31   ar
    33    31    32    1
    34    31    33   ar
    35    18    19   ar
    36    19    20   ar
    37    20    15   ar
    38    12     2   ar
    39    33    27   ar
    40    10     4   ar
    41    25    26    1
@<TRIPOS>MOLECULE
*****
 38 41 0 0 0
SMALL
GASTEIGER

@<TRIPOS>ATOM
      1 C          61.9465   88.4524   10.1517 C.3     1  UNL1        0.0791
      2 C          62.2184   87.0169   10.4917 C.ar    1  UNL1        0.0374
      3 C          62.6484   86.6433   11.8793 C.ar    1  UNL1        0.0023
      4 C          62.9203   85.2078   12.2193 C.ar    1  UNL1        0.0181
      5 C          63.3503   84.8342   13.6069 C.ar    1  UNL1        0.0082
      6 C          63.6221   83.3987   13.9468 C.ar    1  UNL1        0.0347
      7 BR         64.0522   83.0250   15.3345 Br      1  UNL1       -0.0490
      8 C          63.4639   82.3369   12.8992 C.ar    1  UNL1        0.0082
      9 C          63.0339   82.7105   11.5116 C.ar    1  UNL1        0.0197
     10 C          62.7621   84.1460   11.1717 C.ar    1  UNL1        0.0844
     11 N          62.3320   84.5196    9.7840 N.ar    1  UNL1       -0.2119
     12 C          62.0602   85.9551    9.4441 C.ar    1  UNL1        0.2211
     13 O          61.6301   86.3288    8.0564 O.3     1  UNL1       -0.4563
     14 C          60.6703   85.4527    7.3072 C.3     1  UNL1        0.2542
     15 C          64.5441   91.7019   11.8673 C.ar    1  UNL1        0.1067
     16 C          64.1258   90.5446   12.7251 C.ar    1  UNL1        0.0252
     17 C          63.2600   89.4615   12.1533 C.ar    1  UNL1       -0.0003
     18 C          62.8124   89.5355   10.7235 C.ar    1  UNL1        0.0035
     19 C          63.2305   90.6927    9.8657 C.ar    1  UNL1        0.0955
     20 N          64.0964   91.7759   10.4375 N.ar    1  UNL1       -0.2380
     21 S          65.4099   92.7851   12.4391 S.3     1  UNL1       -0.0950
     22 C          67.5244   91.9788   13.7154 C.3     1  UNL1        0.0130
     23 C          66.1409   92.5582   13.7292 C.3     1  UNL1        0.0637
     24 C          60.8088   88.8046    9.2398 C.3     1  UNL1        0.1159
     25 O          61.6303   88.3907    8.0550 O.3     1  UNL1       -0.3820
     26 H          61.7824   89.1590    7.4827 H       1  UNL1        0.2107
     27 C          59.9873   89.2186   10.4246 C.ar    1  UNL1        0.0046
     28 C          59.5749   88.1988   11.4444 C.ar    1  UNL1       -0.0019
     29 C          58.7534   88.6128   12.6292 C.ar    1  UNL1        0.0021
     30 C          58.3443   90.0464   12.7943 C.ar    1  UNL1        0.0296
     31 C          58.7567   91.0661   11.7745 C.ar    1  UNL1        0.1399
     32 F          58.3477   92.4999   11.9395 F       1  UNL1       -0.2042
     33 C          59.5782   90.6522   10.5896 C.ar    1  UNL1        0.0276
     34 C          59.6711   89.1569    8.3279 C.3     1  UNL1        0.0491
     35 C          59.8271   89.0111    6.8432 C.3     1  UNL1        0.0750
     36 N          59.4589   90.1469    5.9353 N.3     1  UNL1       -0.2702
     37 C          58.0319   90.5993    5.8409 C.3     1  UNL1        0.0897
     38 C          60.5177   90.8303    5.1217 C.3     1  UNL1        0.0897
@<TRIPOS>BOND
     1    22    23    1
     2    23    21    1
     3    21    15    1
     4    15    16   ar
     5    16    17   ar
     6    17    18   ar
     7     1    18    1
     8     1     2    1
     9     2     3   ar
    10     3     4   ar
    11     4     5   ar
    12     5     6   ar
    13     6     7    1
    14     6     8   ar
    15     8     9   ar
    16     9    10   ar
    17    10    11   ar
    18    11    12   ar
    19    12    13    1
    20    13    14    1
    21     1    24    1
    22    24    25    1
    23    24    34    1
    24    34    35    1
    25    35    36    1
    26    36    37    1
    27    36    38    1
    28    24    27    1
    29    27    28   ar
    30    28    29   ar
    31    29    30   ar
    32    30    31   ar
    33    31    32    1
    34    31    33   ar
    35    18    19   ar
    36    19    20   ar
    37    20    15   ar
    38    12     2   ar
    39    33    27   ar
    40    10     4   ar
    41    25    26    1
@<TRIPOS>MOLECULE
*****
 38 41 0 0 0
SMALL
GASTEIGER

@<TRIPOS>ATOM
      1 C          64.3884   91.3667   13.0372 C.3     1  UNL1        0.0791
      2 C          63.6197   90.2752   12.3531 C.ar    1  UNL1        0.0374
      3 C          62.7653   90.5927   11.1619 C.ar    1  UNL1        0.0023
      4 C          61.9967   89.5012   10.4778 C.ar    1  UNL1        0.0181
      5 C          61.1423   89.8188    9.2865 C.ar    1  UNL1        0.0082
      6 C          60.3737   88.7273    8.6025 C.ar    1  UNL1        0.0347
      7 BR         59.5193   89.0448    7.4112 Br      1  UNL1       -0.0490
      8 C          60.4595   87.3183    9.1098 C.ar    1  UNL1        0.0082
      9 C          61.3139   87.0007   10.3011 C.ar    1  UNL1        0.0197
     10 C          62.0825   88.0922   10.9851 C.ar    1  UNL1        0.0844
     11 N          62.9369   87.7747   12.1764 N.ar    1  UNL1       -0.2119
     12 C          63.7055   88.8662   12.8604 C.ar    1  UNL1        0.2211
     13 O          64.5599   88.5487   14.0518 O.3     1  UNL1       -0.4563
     14 C          64.5387   87.1708   14.6441 C.3     1  UNL1        0.2542
     15 C          66.6337   94.4078   10.5958 C.ar    1  UNL1        0.1067
     16 C          66.2041   93.1135    9.9710 C.ar    1  UNL1        0.0252
     17 C          65.4556   92.0999   10.7848 C.ar    1  UNL1       -0.0003
     18 C          65.1368   92.3804   12.2234 C.ar    1  UNL1        0.0035
     19 C          65.5664   93.6746   12.8482 C.ar    1  UNL1        0.0955
     20 N          66.3148   94.6883   12.0345 N.ar    1  UNL1       -0.2380
     21 S          67.3821   95.4215    9.7820 S.3     1  UNL1       -0.0950
     22 C          66.3807   96.6560    7.7270 C.3     1  UNL1        0.0130
     23 C          67.1575   95.5086    8.3015 C.3     1  UNL1        0.0637
     24 C          64.4085   91.4445   14.5350 C.3     1  UNL1        0.1159
     25 O          62.9452   91.1171   14.5717 O.3     1  UNL1       -0.3820
     26 H          62.4564   91.8631   14.9532 H       1  UNL1        0.2107
     27 C          65.8719   91.7719   14.4983 C.ar    1  UNL1        0.0046
     28 C          66.7763   91.0578   13.5381 C.ar    1  UNL1       -0.0019
     29 C          68.2397   91.3852   13.5014 C.ar    1  UNL1        0.0021
     30 C          68.7987   92.4266   14.4249 C.ar    1  UNL1        0.0296
     31 C          67.8942   93.1407   15.3851 C.ar    1  UNL1        0.1399
     32 F          68.4532   94.1822   16.3087 F       1  UNL1       -0.2042
     33 C          66.4309   92.8133   15.4218 C.ar    1  UNL1        0.0276
     34 C          64.4287   91.5223   16.0329 C.3     1  UNL1        0.0491
     35 C          63.2328   91.0803   16.8230 C.3     1  UNL1        0.0750
     36 N          62.7010   89.6869   16.6625 N.3     1  UNL1       -0.2702
     37 C          63.3494   88.5480   17.3920 C.3     1  UNL1        0.0897
     38 C          61.5207   89.4325   15.7724 C.3     1  UNL1        0.0897
@<TRIPOS>BOND
     1    22    23    1
     2    23    21    1
     3    21    15    1
     4    15    16   ar
     5    16    17   ar
     6    17    18   ar
     7     1    18    1
     8     1     2    1
     9     2     3   ar
    10     3     4   ar
    11     4     5   ar
    12     5     6   ar
    13     6     7    1
    14     6     8   ar
    15     8     9   ar
    16     9    10   ar
    17    10    11   ar
    18    11    12   ar
    19    12    13    1
    20    13    14    1
    21     1    24    1
    22    24    25    1
    23    24    34    1
    24    34    35    1
    25    35    36    1
    26    36    37    1
    27    36    38    1
    28    24    27    1
    29    27    28   ar
    30    28    29   ar
    31    29    30   ar
    32    30    31   ar
    33    31    32    1
    34    31    33   ar
    35    18    19   ar
    36    19    20   ar
    37    20    15   ar
    38    12     2   ar
    39    33    27   ar
    40    10     4   ar
    41    25    26    1
@<TRIPOS>MOLECULE
*****
 38 41 0 0 0
SMALL
GASTEIGER

@<TRIPOS>ATOM
      1 C          62.2505   88.6875   12.2490 C.3     1  UNL1        0.0791
      2 C          63.1961   89.8262   12.4929 C.ar    1  UNL1        0.0374
      3 C          63.7603   90.5938   11.3343 C.ar    1  UNL1        0.0023
      4 C          64.7059   91.7324   11.5781 C.ar    1  UNL1        0.0181
      5 C          65.2701   92.5001   10.4195 C.ar    1  UNL1        0.0082
      6 C          66.2157   93.6386   10.6634 C.ar    1  UNL1        0.0347
      7 BR         66.7799   94.4063    9.5048 Br      1  UNL1       -0.0490
      8 C          66.5970   94.0096   12.0659 C.ar    1  UNL1        0.0082
      9 C          66.0328   93.2420   13.2245 C.ar    1  UNL1        0.0197
     10 C          65.0873   92.1034   12.9806 C.ar    1  UNL1        0.0844
     11 N          64.5230   91.3357   14.1392 N.ar    1  UNL1       -0.2119
     12 C          63.5774   90.1971   13.8954 C.ar    1  UNL1        0.2211
     13 O          63.0132   89.4294   15.0540 O.3     1  UNL1       -0.4563
     14 C          63.2689   89.8938   16.4572 C.3     1  UNL1        0.2542
     15 C          63.5751   84.4573   13.0241 C.ar    1  UNL1        0.1067
     16 C          62.4052   84.7239   12.1239 C.ar    1  UNL1        0.0252
     17 C          61.9637   86.1340   11.8655 C.ar    1  UNL1       -0.0003
     18 C          62.6920   87.2775   12.5074 C.ar    1  UNL1        0.0035
     19 C          63.8618   87.0110   13.4076 C.ar    1  UNL1        0.0955
     20 N          64.3034   85.6008   13.6660 N.ar    1  UNL1       -0.2380
     21 S          64.0166   83.0473   13.2825 S.3     1  UNL1       -0.0950
     22 C          61.9595   81.6789   14.0861 C.3     1  UNL1        0.0130
     23 C          63.3325   82.2284   14.3367 C.3     1  UNL1        0.0637
     24 C          60.8634   88.9590   11.7468 C.3     1  UNL1        0.1159
     25 O          60.5973   89.8190   12.9466 O.3     1  UNL1       -0.3820
     26 H          59.8833   89.4271   13.4734 H       1  UNL1        0.2107
     27 C          61.1295   88.0990   10.5470 C.ar    1  UNL1        0.0046
     28 C          62.5363   87.8921   10.0696 C.ar    1  UNL1       -0.0019
     29 C          62.8024   87.0321    8.8698 C.ar    1  UNL1        0.0021
     30 C          61.6616   86.3791    8.1473 C.ar    1  UNL1        0.0296
     31 C          60.2548   86.5860    8.6246 C.ar    1  UNL1        0.1399
     32 F          59.1139   85.9329    7.9021 F       1  UNL1       -0.2042
     33 C          59.9887   87.4460    9.8244 C.ar    1  UNL1        0.0276
     34 C          59.4763   89.2305   11.2446 C.3     1  UNL1        0.0491
     35 C          58.4230   89.7347   12.1861 C.3     1  UNL1        0.0750
     36 N          57.8472   88.8203   13.2264 N.3     1  UNL1       -0.2702
     37 C          58.6496   88.4704   14.4445 C.3     1  UNL1        0.0897
     38 C          56.4689   88.2558   13.0487 C.3     1  UNL1        0.0897
@<TRIPOS>BOND
     1    22    23    1
     2    23    21    1
     3    21    15    1
     4    15    16   ar
     5    16    17   ar
     6    17    18   ar
     7     1    18    1
     8     1     2    1
     9     2     3   ar
    10     3     4   ar
    11     4     5   ar
    12     5     6   ar
    13     6     7    1
    14     6     8   ar
    15     8     9   ar
    16     9    10   ar
    17    10    11   ar
    18    11    12   ar
    19    12    13    1
    20    13    14    1
    21     1    24    1
    22    24    25    1
    23    24    34    1
    24    34    35    1
    25    35    36    1
    26    36    37    1
    27    36    38    1
    28    24    27    1
    29    27    28   ar
    30    28    29   ar
    31    29    30   ar
    32    30    31   ar
    33    31    32    1
    34    31    33   ar
    35    18    19   ar
    36    19    20   ar
    37    20    15   ar
    38    12     2   ar
    39    33    27   ar
    40    10     4   ar
    41    25    26    1
@<TRIPOS>MOLECULE
*****
 38 41 0 0 0
SMALL
GASTEIGER

@<TRIPOS>ATOM
      1 C          63.1028   89.4468   12.9036 C.3     1  UNL1        0.0791
      2 C          62.2488   88.7242   11.9043 C.ar    1  UNL1        0.0374
      3 C          62.8892   87.8960   10.8301 C.ar    1  UNL1        0.0023
      4 C          62.0351   87.1734    9.8307 C.ar    1  UNL1        0.0181
      5 C          62.6755   86.3452    8.7565 C.ar    1  UNL1        0.0082
      6 C          61.8215   85.6227    7.7573 C.ar    1  UNL1        0.0347
      7 BR         62.4619   84.7945    6.6830 Br      1  UNL1       -0.0490
      8 C          60.3271   85.7283    7.8323 C.ar    1  UNL1        0.0082
      9 C          59.6867   86.5565    8.9065 C.ar    1  UNL1        0.0197
     10 C          60.5407   87.2790    9.9057 C.ar    1  UNL1        0.0844
     11 N          59.9004   88.1072   10.9800 N.ar    1  UNL1       -0.2119
     12 C          60.7544   88.8298   11.9793 C.ar    1  UNL1        0.2211
     13 O          60.1140   89.6580   13.0536 O.3     1  UNL1       -0.4563
     14 C          58.7861   89.2529   13.6215 C.3     1  UNL1        0.2542
     15 C          66.0040   92.5977   11.5234 C.ar    1  UNL1        0.1067
     16 C          64.8497   92.2062   10.6490 C.ar    1  UNL1        0.0252
     17 C          63.8826   91.1560   11.1091 C.ar    1  UNL1       -0.0003
     18 C          64.0698   90.4970   12.4435 C.ar    1  UNL1        0.0035
     19 C          65.2240   90.8884   13.3179 C.ar    1  UNL1        0.0955
     20 N          66.1911   91.9387   12.8579 N.ar    1  UNL1       -0.2380
     21 S          66.9710   93.6479   11.0633 S.3     1  UNL1       -0.0950
     22 C          68.4037   92.4099    9.2845 C.3     1  UNL1        0.0130
     23 C          67.5522   93.5789    9.6823 C.3     1  UNL1        0.0637
     24 C          62.9897   89.1190   14.3630 C.3     1  UNL1        0.1159
     25 O          62.4167   90.4804   14.6243 O.3     1  UNL1       -0.3820
     26 H          63.0136   90.9761   15.2064 H       1  UNL1        0.2107
     27 C          63.5628   87.7576   14.1017 C.ar    1  UNL1        0.0046
     28 C          64.8269   87.3317   14.7876 C.ar    1  UNL1       -0.0019
     29 C          65.4000   85.9704   14.5262 C.ar    1  UNL1        0.0021
     30 C          64.7089   85.0349   13.5790 C.ar    1  UNL1        0.0296
     31 C          63.4448   85.4608   12.8931 C.ar    1  UNL1        0.1399
     32 F          62.7537   84.5254   11.9457 F       1  UNL1       -0.2042
     33 C          62.8717   86.8222   13.1544 C.ar    1  UNL1        0.0276
     34 C          62.8767   88.7912   15.8224 C.3     1  UNL1        0.0491
     35 C          61.8421   87.8125   16.2933 C.3     1  UNL1        0.0750
     36 N          62.2543   86.6118   17.0923 N.3     1  UNL1       -0.2702
     37 C          62.6988   86.7746   18.5156 C.3     1  UNL1        0.0897
     38 C          62.2219   85.2483   16.4680 C.3     1  UNL1        0.0897
@<TRIPOS>BOND
     1    22    23    1
     2    23    21    1
     3    21    15    1
     4    15    16   ar
     5    16    17   ar
     6    17    18   ar
     7     1    18    1
     8     1     2    1
     9     2     3   ar
    10     3     4   ar
    11     4     5   ar
    12     5     6   ar
    13     6     7    1
    14     6     8   ar
    15     8     9   ar
    16     9    10   ar
    17    10    11   ar
    18    11    12   ar
    19    12    13    1
    20    13    14    1
    21     1    24    1
    22    24    25    1
    23    24    34    1
    24    34    35    1
    25    35    36    1
    26    36    37    1
    27    36    38    1
    28    24    27    1
    29    27    28   ar
    30    28    29   ar
    31    29    30   ar
    32    30    31   ar
    33    31    32    1
    34    31    33   ar
    35    18    19   ar
    36    19    20   ar
    37    20    15   ar
    38    12     2   ar
    39    33    27   ar
    40    10     4   ar
    41    25    26    1
