@<TRIPOS>MOLECULE
*****
 34 38 0 0 0
SMALL
GASTEIGER

@<TRIPOS>ATOM
      1 C          65.4709   93.2984   11.4242 C.ar    1  UNL1        0.0839
      2 C          64.4638   92.2482   11.0596 C.ar    1  UNL1        0.0430
      3 N          64.2814   91.3491   12.2463 N.ar    1  UNL1       -0.3271
      4 C          65.1758   91.8436   13.3443 C.ar    1  UNL1        0.1098
      5 C          65.4157   91.3525   14.7412 C.ar    1  UNL1        0.1509
      6 N          66.3908   92.0662   15.6299 N.ar    1  UNL1       -0.2075
      7 C          67.1260   93.2709   15.1218 C.ar    1  UNL1        0.2001
      8 N          66.8860   93.7620   13.7250 N.ar    1  UNL1       -0.2222
      9 C          65.9109   93.0483   12.8362 C.ar    1  UNL1        0.1069
     10 C          63.3245   90.1963   12.1738 C.3     1  UNL1        0.1059
     11 C          62.5500   89.9426   10.9146 C.3     1  UNL1        0.0249
     12 C          62.7324   90.8417    9.7278 C.3     1  UNL1        0.0082
     13 C          63.6893   91.9945    9.8004 C.3     1  UNL1        0.0441
     14 N          64.6806   90.1478   15.2493 N.pl3   1  UNL1       -0.2892
     15 C          64.9720   88.7935   14.6739 C.3     1  UNL1        0.1095
     16 C          64.2368   87.5888   15.1821 C.3     1  UNL1        0.0939
     17 N          63.2103   87.7384   16.2656 N.3     1  UNL1       -0.2695
     18 C          62.9190   89.0927   16.8410 C.3     1  UNL1        0.0939
     19 C          63.6541   90.2973   16.3328 C.3     1  UNL1        0.1095
     20 C          62.4752   86.5337   16.7738 C.3     1  UNL1        0.0769
     21 C          63.1591   85.1992   16.8137 C.3     1  UNL1        0.0437
     22 C          63.2620   84.3717   15.5669 C.ar    1  UNL1       -0.0184
     23 C          64.4223   84.5603   14.6351 C.ar    1  UNL1       -0.0018
     24 C          64.5252   83.7329   13.3883 C.ar    1  UNL1        0.0316
     25 C          63.4678   82.7166   13.0733 C.ar    1  UNL1        0.1674
     26 F          63.5708   81.8891   11.8264 F       1  UNL1       -0.2018
     27 C          62.3076   82.5279   14.0050 C.ar    1  UNL1        0.1671
     28 F          61.2502   81.5117   13.6899 F       1  UNL1       -0.2018
     29 C          62.2047   83.3555   15.2518 C.ar    1  UNL1        0.0277
     30 N          65.0039   95.4770   10.0879 N.am    1  UNL1       -0.3252
     31 C          65.9532   94.4044   10.5331 C.2     1  UNL1        0.2454
     32 O          67.3851   94.4379   10.0872 O.2     1  UNL1       -0.2703
     33 H          65.3206   96.2029    9.5031 H       1  UNL1        0.1453
     34 H          64.0642   95.4551   10.3806 H       1  UNL1        0.1453
@<TRIPOS>BOND
     1    30    31   am
     2    31    32    2
     3    31     1    1
     4     1     2   ar
     5     2     3   ar
     6     3     4   ar
     7     4     5   ar
     8     5    14    1
     9    14    15    1
    10    15    16    1
    11    16    17    1
    12    17    20    1
    13    20    21    1
    14    21    22    1
    15    22    23   ar
    16    23    24   ar
    17    24    25   ar
    18    25    26    1
    19    25    27   ar
    20    27    28    1
    21    27    29   ar
    22    17    18    1
    23    18    19    1
    24     5     6   ar
    25     6     7   ar
    26     7     8   ar
    27     8     9   ar
    28     3    10    1
    29    10    11    1
    30    11    12    1
    31    12    13    1
    32     9     1   ar
    33    13     2    1
    34     9     4   ar
    35    19    14    1
    36    29    22   ar
    37    30    33    1
    38    30    34    1
@<TRIPOS>MOLECULE
*****
 34 38 0 0 0
SMALL
GASTEIGER

@<TRIPOS>ATOM
      1 C          66.0400   93.8028   12.0261 C.ar    1  UNL1        0.0839
      2 C          66.4832   93.4791   13.4222 C.ar    1  UNL1        0.0430
      3 N          65.7538   92.2458   13.8658 N.ar    1  UNL1       -0.3271
      4 C          64.8599   91.8072   12.7439 C.ar    1  UNL1        0.1098
      5 C          63.9076   90.6559   12.6107 C.ar    1  UNL1        0.1509
      6 N          63.1323   90.4669   11.3406 N.ar    1  UNL1       -0.2075
      7 C          63.3092   91.4292   10.2036 C.ar    1  UNL1        0.2001
      8 N          64.2615   92.5805   10.3368 N.ar    1  UNL1       -0.2222
      9 C          65.0368   92.7695   11.6069 C.ar    1  UNL1        0.1069
     10 C          65.9978   91.6814   15.2339 C.3     1  UNL1        0.1059
     11 C          66.9712   92.3504   16.1585 C.3     1  UNL1        0.0249
     12 C          67.7006   93.5838   15.7149 C.3     1  UNL1        0.0082
     13 C          67.4566   94.1481   14.3467 C.3     1  UNL1        0.0441
     14 N          63.7307   89.6936   13.7477 N.pl3   1  UNL1       -0.2892
     15 C          64.2116   88.2790   13.6146 C.3     1  UNL1        0.1095
     16 C          64.0346   87.3167   14.7516 C.3     1  UNL1        0.0939
     17 N          63.3768   87.7690   16.0215 N.3     1  UNL1       -0.2695
     18 C          62.8959   89.1835   16.1545 C.3     1  UNL1        0.0939
     19 C          63.0728   90.1458   15.0175 C.3     1  UNL1        0.1095
     20 C          63.1998   86.8067   17.1585 C.3     1  UNL1        0.0769
     21 C          62.4317   85.5348   16.9520 C.3     1  UNL1        0.0437
     22 C          62.8747   84.5521   15.9089 C.ar    1  UNL1       -0.0184
     23 C          64.2891   84.5744   15.4101 C.ar    1  UNL1       -0.0018
     24 C          64.7322   83.5917   14.3670 C.ar    1  UNL1        0.0316
     25 C          63.7607   82.5868   13.8227 C.ar    1  UNL1        0.1674
     26 F          64.2037   81.6041   12.7795 F       1  UNL1       -0.2018
     27 C          62.3462   82.5645   14.3214 C.ar    1  UNL1        0.1671
     28 F          61.3747   81.5596   13.7771 F       1  UNL1       -0.2018
     29 C          61.9032   83.5472   15.3645 C.ar    1  UNL1        0.0277
     30 N          65.8610   96.2995   11.3301 N.am    1  UNL1       -0.3252
     31 C          66.5166   94.9572   11.1952 C.2     1  UNL1        0.2454
     32 O          67.6488   94.7691   10.2293 O.2     1  UNL1       -0.2703
     33 H          66.1738   97.0571   10.7847 H       1  UNL1        0.1453
     34 H          65.1179   96.4229   11.9640 H       1  UNL1        0.1453
@<TRIPOS>BOND
     1    30    31   am
     2    31    32    2
     3    31     1    1
     4     1     2   ar
     5     2     3   ar
     6     3     4   ar
     7     4     5   ar
     8     5    14    1
     9    14    15    1
    10    15    16    1
    11    16    17    1
    12    17    20    1
    13    20    21    1
    14    21    22    1
    15    22    23   ar
    16    23    24   ar
    17    24    25   ar
    18    25    26    1
    19    25    27   ar
    20    27    28    1
    21    27    29   ar
    22    17    18    1
    23    18    19    1
    24     5     6   ar
    25     6     7   ar
    26     7     8   ar
    27     8     9   ar
    28     3    10    1
    29    10    11    1
    30    11    12    1
    31    12    13    1
    32     9     1   ar
    33    13     2    1
    34     9     4   ar
    35    19    14    1
    36    29    22   ar
    37    30    33    1
    38    30    34    1
@<TRIPOS>MOLECULE
*****
 34 38 0 0 0
SMALL
GASTEIGER

@<TRIPOS>ATOM
      1 C          63.1148   83.4135   12.1264 C.ar    1  UNL1        0.0839
      2 C          62.8019   84.7245   11.4680 C.ar    1  UNL1        0.0430
      3 N          63.0341   85.8145   12.4720 N.ar    1  UNL1       -0.3271
      4 C          63.4904   85.1771   13.7509 C.ar    1  UNL1        0.1098
      5 C          63.8670   85.7562   15.0823 C.ar    1  UNL1        0.1509
      6 N          64.2935   84.8515   16.2002 N.ar    1  UNL1       -0.2075
      7 C          64.3434   83.3676   15.9866 C.ar    1  UNL1        0.2001
      8 N          63.9668   82.7885   14.6551 N.ar    1  UNL1       -0.2222
      9 C          63.5404   83.6932   13.5373 C.ar    1  UNL1        0.1069
     10 C          62.7999   87.2465   12.0920 C.3     1  UNL1        0.1059
     11 C          62.3336   87.5885   10.7080 C.3     1  UNL1        0.0249
     12 C          62.1015   86.4986    9.7040 C.3     1  UNL1        0.0082
     13 C          62.3356   85.0665   10.0840 C.3     1  UNL1        0.0441
     14 N          63.8171   87.2401   15.2960 N.pl3   1  UNL1       -0.2892
     15 C          63.1573   87.7996   16.5214 C.3     1  UNL1        0.1095
     16 C          63.1074   89.2835   16.7350 C.3     1  UNL1        0.0939
     17 N          63.7173   90.2078   15.7233 N.3     1  UNL1       -0.2695
     18 C          64.3772   89.6483   14.4979 C.3     1  UNL1        0.0939
     19 C          64.4270   88.1644   14.2843 C.3     1  UNL1        0.1095
     20 C          63.6675   91.6917   15.9369 C.3     1  UNL1        0.0769
     21 C          64.8533   92.4067   16.5138 C.3     1  UNL1        0.0437
     22 C          66.1709   92.3728   15.7978 C.ar    1  UNL1       -0.0184
     23 C          67.4505   92.4258   16.5787 C.ar    1  UNL1       -0.0018
     24 C          68.7680   92.3918   15.8627 C.ar    1  UNL1        0.0316
     25 C          68.8061   92.3049   14.3657 C.ar    1  UNL1        0.1674
     26 F          70.1238   92.2710   13.6497 F       1  UNL1       -0.2018
     27 C          67.5265   92.2519   13.5848 C.ar    1  UNL1        0.1671
     28 F          67.5646   92.1650   12.0878 F       1  UNL1       -0.2018
     29 C          66.2089   92.2858   14.3008 C.ar    1  UNL1        0.0277
     30 N          62.4304   80.9102   12.2480 N.am    1  UNL1       -0.3252
     31 C          63.0190   82.0604   11.4862 C.2     1  UNL1        0.2454
     32 O          63.5119   81.8574   10.0840 O.2     1  UNL1       -0.2703
     33 H          62.3675   80.0221   11.8278 H       1  UNL1        0.1453
     34 H          62.1069   81.0433   13.1683 H       1  UNL1        0.1453
@<TRIPOS>BOND
     1    30    31   am
     2    31    32    2
     3    31     1    1
     4     1     2   ar
     5     2     3   ar
     6     3     4   ar
     7     4     5   ar
     8     5    14    1
     9    14    15    1
    10    15    16    1
    11    16    17    1
    12    17    20    1
    13    20    21    1
    14    21    22    1
    15    22    23   ar
    16    23    24   ar
    17    24    25   ar
    18    25    26    1
    19    25    27   ar
    20    27    28    1
    21    27    29   ar
    22    17    18    1
    23    18    19    1
    24     5     6   ar
    25     6     7   ar
    26     7     8   ar
    27     8     9   ar
    28     3    10    1
    29    10    11    1
    30    11    12    1
    31    12    13    1
    32     9     1   ar
    33    13     2    1
    34     9     4   ar
    35    19    14    1
    36    29    22   ar
    37    30    33    1
    38    30    34    1
@<TRIPOS>MOLECULE
*****
 34 38 0 0 0
SMALL
GASTEIGER

@<TRIPOS>ATOM
      1 C          63.4083   93.8209   -0.1404 C.ar    1  UNL1        0.0839
      2 C          62.0149   93.2890   -0.2999 C.ar    1  UNL1        0.0430
      3 N          61.4411   93.8632   -1.5613 N.ar    1  UNL1       -0.3271
      4 C          62.4800   94.7500   -2.1813 C.ar    1  UNL1        0.1098
      5 C          62.4759   95.5780   -3.4321 C.ar    1  UNL1        0.1509
      6 N          63.6877   96.3798   -3.8047 N.ar    1  UNL1       -0.2075
      7 C          64.9034   96.3537   -2.9265 C.ar    1  UNL1        0.2001
      8 N          64.9075   95.5257   -1.6757 N.ar    1  UNL1       -0.2222
      9 C          63.6957   94.7239   -1.3031 C.ar    1  UNL1        0.1069
     10 C          60.0469   93.5044   -1.9824 C.3     1  UNL1        0.1059
     11 C          59.2264   92.5713   -1.1421 C.3     1  UNL1        0.0249
     12 C          59.8002   91.9971    0.1193 C.3     1  UNL1        0.0082
     13 C          61.1944   92.3559    0.5404 C.3     1  UNL1        0.0441
     14 N          61.2601   95.6041   -4.3104 N.pl3   1  UNL1       -0.2892
     15 C          60.1897   96.6291   -4.0789 C.3     1  UNL1        0.1095
     16 C          58.9740   96.6552   -4.9571 C.3     1  UNL1        0.0939
     17 N          58.8287   95.6564   -6.0668 N.3     1  UNL1       -0.2695
     18 C          59.8992   94.6315   -6.2982 C.3     1  UNL1        0.0939
     19 C          61.1149   94.6054   -5.4199 C.3     1  UNL1        0.1095
     20 C          57.6130   95.6825   -6.9451 C.3     1  UNL1        0.0769
     21 C          56.2887   95.2285   -6.4063 C.3     1  UNL1        0.0437
     22 C          56.2363   94.2292   -5.2890 C.ar    1  UNL1       -0.0184
     23 C          56.4191   92.7690   -5.5795 C.ar    1  UNL1       -0.0018
     24 C          56.3667   91.7696   -4.4622 C.ar    1  UNL1        0.0316
     25 C          56.1314   92.2305   -3.0543 C.ar    1  UNL1        0.1674
     26 F          56.0790   91.2310   -1.9369 F       1  UNL1       -0.2018
     27 C          55.9486   93.6906   -2.7637 C.ar    1  UNL1        0.1671
     28 F          55.7134   94.1515   -1.3557 F       1  UNL1       -0.2018
     29 C          56.0010   94.6900   -3.8811 C.ar    1  UNL1        0.0277
     30 N          65.7643   93.1060    0.6890 N.am    1  UNL1       -0.3252
     31 C          64.3490   93.5053    0.9845 C.2     1  UNL1        0.2454
     32 O          63.8744   93.5890    2.4051 O.2     1  UNL1       -0.2703
     33 H          66.3817   92.8988    1.4273 H       1  UNL1        0.1453
     34 H          66.0758   93.0511   -0.2433 H       1  UNL1        0.1453
@<TRIPOS>BOND
     1    30    31   am
     2    31    32    2
     3    31     1    1
     4     1     2   ar
     5     2     3   ar
     6     3     4   ar
     7     4     5   ar
     8     5    14    1
     9    14    15    1
    10    15    16    1
    11    16    17    1
    12    17    20    1
    13    20    21    1
    14    21    22    1
    15    22    23   ar
    16    23    24   ar
    17    24    25   ar
    18    25    26    1
    19    25    27   ar
    20    27    28    1
    21    27    29   ar
    22    17    18    1
    23    18    19    1
    24     5     6   ar
    25     6     7   ar
    26     7     8   ar
    27     8     9   ar
    28     3    10    1
    29    10    11    1
    30    11    12    1
    31    12    13    1
    32     9     1   ar
    33    13     2    1
    34     9     4   ar
    35    19    14    1
    36    29    22   ar
    37    30    33    1
    38    30    34    1
@<TRIPOS>MOLECULE
*****
 34 38 0 0 0
SMALL
GASTEIGER

@<TRIPOS>ATOM
      1 C          65.7818   92.3074   14.5314 C.ar    1  UNL1        0.0839
      2 C          64.7592   91.3199   15.0101 C.ar    1  UNL1        0.0430
      3 N          63.9382   90.8936   13.8293 N.ar    1  UNL1       -0.3271
      4 C          64.4535   91.6176   12.6208 C.ar    1  UNL1        0.1098
      5 C          64.0323   91.5940   11.1814 C.ar    1  UNL1        0.1509
      6 N          64.7506   92.4443   10.1758 N.ar    1  UNL1       -0.2075
      7 C          65.8900   93.3181   10.6097 C.ar    1  UNL1        0.2001
      8 N          66.3111   93.3417   12.0491 N.ar    1  UNL1       -0.2222
      9 C          65.5928   92.4914   13.0547 C.ar    1  UNL1        0.1069
     10 C          62.8276   89.9012   14.0071 C.3     1  UNL1        0.1059
     11 C          62.5380   89.3351   15.3656 C.3     1  UNL1        0.0249
     12 C          63.3589   89.7615   16.5464 C.3     1  UNL1        0.0082
     13 C          64.4695   90.7539   16.3686 C.3     1  UNL1        0.0441
     14 N          62.8929   90.7202   10.7474 N.pl3   1  UNL1       -0.2892
     15 C          61.4784   91.1761   10.9510 C.3     1  UNL1        0.1095
     16 C          60.3391   90.3022   10.5170 C.3     1  UNL1        0.0939
     17 N          60.6143   88.9726    9.8796 N.3     1  UNL1       -0.2695
     18 C          62.0288   88.5168    9.6761 C.3     1  UNL1        0.0939
     19 C          63.1681   89.3906   10.1100 C.3     1  UNL1        0.1095
     20 C          59.4749   88.0987    9.4456 C.3     1  UNL1        0.0769
     21 C          59.7491   86.8090    8.7302 C.3     1  UNL1        0.0437
     22 C          60.9695   86.0066    9.0718 C.ar    1  UNL1       -0.0184
     23 C          61.8917   85.5438    7.9831 C.ar    1  UNL1       -0.0018
     24 C          63.1121   84.7414    8.3247 C.ar    1  UNL1        0.0316
     25 C          63.4104   84.4019    9.7550 C.ar    1  UNL1        0.1674
     26 F          64.6309   83.5994   10.0965 F       1  UNL1       -0.2018
     27 C          62.4882   84.8647   10.8437 C.ar    1  UNL1        0.1671
     28 F          62.7864   84.5252   12.2740 F       1  UNL1       -0.2018
     29 C          61.2678   85.6671   10.5021 C.ar    1  UNL1        0.0277
     30 N          68.0397   93.5745   14.7456 N.am    1  UNL1       -0.3252
     31 C          66.8124   92.9910   15.3803 C.2     1  UNL1        0.2454
     32 O          66.6155   93.0909   16.8640 O.2     1  UNL1       -0.2703
     33 H          68.7161   94.0232   15.3029 H       1  UNL1        0.1453
     34 H          68.1690   93.5090   13.7719 H       1  UNL1        0.1453
@<TRIPOS>BOND
     1    30    31   am
     2    31    32    2
     3    31     1    1
     4     1     2   ar
     5     2     3   ar
     6     3     4   ar
     7     4     5   ar
     8     5    14    1
     9    14    15    1
    10    15    16    1
    11    16    17    1
    12    17    20    1
    13    20    21    1
    14    21    22    1
    15    22    23   ar
    16    23    24   ar
    17    24    25   ar
    18    25    26    1
    19    25    27   ar
    20    27    28    1
    21    27    29   ar
    22    17    18    1
    23    18    19    1
    24     5     6   ar
    25     6     7   ar
    26     7     8   ar
    27     8     9   ar
    28     3    10    1
    29    10    11    1
    30    11    12    1
    31    12    13    1
    32     9     1   ar
    33    13     2    1
    34     9     4   ar
    35    19    14    1
    36    29    22   ar
    37    30    33    1
    38    30    34    1
@<TRIPOS>MOLECULE
*****
 34 38 0 0 0
SMALL
GASTEIGER

@<TRIPOS>ATOM
      1 C          63.0185   83.1417   12.1580 C.ar    1  UNL1        0.0839
      2 C          62.7662   84.4567   11.4819 C.ar    1  UNL1        0.0430
      3 N          63.0348   85.5478   12.4756 N.ar    1  UNL1       -0.3271
      4 C          63.4532   84.9071   13.7657 C.ar    1  UNL1        0.1098
      5 C          63.8420   85.4856   15.0939 C.ar    1  UNL1        0.1509
      6 N          64.2207   84.5770   16.2258 N.ar    1  UNL1       -0.2075
      7 C          64.2106   83.0900   16.0295 C.ar    1  UNL1        0.2001
      8 N          63.8218   82.5115   14.7013 N.ar    1  UNL1       -0.2222
      9 C          63.4431   83.4200   13.5694 C.ar    1  UNL1        0.1069
     10 C          62.8638   86.9838   12.0773 C.3     1  UNL1        0.1059
     11 C          62.4241   87.3287   10.6853 C.3     1  UNL1        0.0249
     12 C          62.1555   86.2376    9.6916 C.3     1  UNL1        0.0082
     13 C          62.3265   84.8016   10.0899 C.3     1  UNL1        0.0441
     14 N          63.8520   86.9727   15.2903 N.pl3   1  UNL1       -0.2892
     15 C          63.1902   87.5747   16.4943 C.3     1  UNL1        0.1095
     16 C          63.2003   89.0617   16.6906 C.3     1  UNL1        0.0939
     17 N          63.8722   89.9468   15.6830 N.3     1  UNL1       -0.2695
     18 C          64.5340   89.3447   14.4790 C.3     1  UNL1        0.0939
     19 C          64.5239   87.8577   14.2827 C.3     1  UNL1        0.1095
     20 C          63.8823   91.4338   15.8793 C.3     1  UNL1        0.0769
     21 C          65.1659   92.1989   15.7483 C.3     1  UNL1        0.0437
     22 C          65.9120   92.1950   14.4471 C.ar    1  UNL1       -0.0184
     23 C          65.1924   92.5096   13.1691 C.ar    1  UNL1       -0.0018
     24 C          65.9384   92.5057   11.8678 C.ar    1  UNL1        0.0316
     25 C          67.4040   92.1872   11.8445 C.ar    1  UNL1        0.1674
     26 F          68.1501   92.1833   10.5431 F       1  UNL1       -0.2018
     27 C          68.1236   91.8726   13.1225 C.ar    1  UNL1        0.1671
     28 F          69.5892   91.5541   13.0991 F       1  UNL1       -0.2018
     29 C          67.3775   91.8765   14.4237 C.ar    1  UNL1        0.0277
     30 N          62.4136   80.6232   12.3611 N.am    1  UNL1       -0.3252
     31 C          62.8720   81.7863   11.5323 C.2     1  UNL1        0.2454
     32 O          63.1840   81.5940   10.0777 O.2     1  UNL1       -0.2703
     33 H          62.3174   79.7337   11.9504 H       1  UNL1        0.1453
     34 H          62.2088   80.7494   13.3158 H       1  UNL1        0.1453
@<TRIPOS>BOND
     1    30    31   am
     2    31    32    2
     3    31     1    1
     4     1     2   ar
     5     2     3   ar
     6     3     4   ar
     7     4     5   ar
     8     5    14    1
     9    14    15    1
    10    15    16    1
    11    16    17    1
    12    17    20    1
    13    20    21    1
    14    21    22    1
    15    22    23   ar
    16    23    24   ar
    17    24    25   ar
    18    25    26    1
    19    25    27   ar
    20    27    28    1
    21    27    29   ar
    22    17    18    1
    23    18    19    1
    24     5     6   ar
    25     6     7   ar
    26     7     8   ar
    27     8     9   ar
    28     3    10    1
    29    10    11    1
    30    11    12    1
    31    12    13    1
    32     9     1   ar
    33    13     2    1
    34     9     4   ar
    35    19    14    1
    36    29    22   ar
    37    30    33    1
    38    30    34    1
@<TRIPOS>MOLECULE
*****
 34 38 0 0 0
SMALL
GASTEIGER

@<TRIPOS>ATOM
      1 C          63.2791   94.0257   -0.0090 C.ar    1  UNL1        0.0839
      2 C          62.8435   94.5193   -1.3568 C.ar    1  UNL1        0.0430
      3 N          61.3439   94.5145   -1.3898 N.ar    1  UNL1       -0.3271
      4 C          60.8527   94.0179   -0.0623 C.ar    1  UNL1        0.1098
      5 C          59.4708   93.8017    0.4796 C.ar    1  UNL1        0.1509
      6 N          59.2850   93.2835    1.8749 N.ar    1  UNL1       -0.2075
      7 C          60.4810   92.9813    2.7283 C.ar    1  UNL1        0.2001
      8 N          61.8629   93.1975    2.1864 N.ar    1  UNL1       -0.2222
      9 C          62.0487   93.7158    0.7910 C.ar    1  UNL1        0.1069
     10 C          60.6194   94.9630   -2.6243 C.3     1  UNL1        0.1059
     11 C          61.3946   95.4162   -3.8258 C.3     1  UNL1        0.0249
     12 C          62.8942   95.4210   -3.7928 C.3     1  UNL1        0.0082
     13 C          63.6187   94.9726   -2.5583 C.3     1  UNL1        0.0441
     14 N          58.2747   94.1039   -0.3738 N.pl3   1  UNL1       -0.2892
     15 C          57.4478   92.9827   -0.9299 C.3     1  UNL1        0.1095
     16 C          56.2517   93.2849   -1.7832 C.3     1  UNL1        0.0939
     17 N          55.8827   94.7081   -2.0804 N.3     1  UNL1       -0.2695
     18 C          56.7097   95.8291   -1.5243 C.3     1  UNL1        0.0939
     19 C          57.9057   95.5270   -0.6710 C.3     1  UNL1        0.1095
     20 C          54.6867   95.0103   -2.9338 C.3     1  UNL1        0.0769
     21 C          54.8713   95.4347   -4.3607 C.3     1  UNL1        0.0437
     22 C          56.1044   95.0266   -5.1110 C.ar    1  UNL1       -0.0184
     23 C          57.1915   96.0276   -5.3680 C.ar    1  UNL1       -0.0018
     24 C          58.4246   95.6196   -6.1183 C.ar    1  UNL1        0.0316
     25 C          58.5705   94.2106   -6.6115 C.ar    1  UNL1        0.1674
     26 F          59.8037   93.8025   -7.3619 F       1  UNL1       -0.2018
     27 C          57.4834   93.2096   -6.3545 C.ar    1  UNL1        0.1671
     28 F          57.6293   91.8005   -6.8478 F       1  UNL1       -0.2018
     29 C          56.2503   93.6176   -5.6042 C.ar    1  UNL1        0.0277
     30 N          65.0710   92.7215    1.3467 N.am    1  UNL1       -0.3252
     31 C          64.6963   93.8694    0.4570 C.2     1  UNL1        0.2454
     32 O          65.7389   94.8611    0.0330 O.2     1  UNL1       -0.2703
     33 H          66.0012   92.6190    1.6525 H       1  UNL1        0.1453
     34 H          64.3868   92.0706    1.6250 H       1  UNL1        0.1453
@<TRIPOS>BOND
     1    30    31   am
     2    31    32    2
     3    31     1    1
     4     1     2   ar
     5     2     3   ar
     6     3     4   ar
     7     4     5   ar
     8     5    14    1
     9    14    15    1
    10    15    16    1
    11    16    17    1
    12    17    20    1
    13    20    21    1
    14    21    22    1
    15    22    23   ar
    16    23    24   ar
    17    24    25   ar
    18    25    26    1
    19    25    27   ar
    20    27    28    1
    21    27    29   ar
    22    17    18    1
    23    18    19    1
    24     5     6   ar
    25     6     7   ar
    26     7     8   ar
    27     8     9   ar
    28     3    10    1
    29    10    11    1
    30    11    12    1
    31    12    13    1
    32     9     1   ar
    33    13     2    1
    34     9     4   ar
    35    19    14    1
    36    29    22   ar
    37    30    33    1
    38    30    34    1
@<TRIPOS>MOLECULE
*****
 34 38 0 0 0
SMALL
GASTEIGER

@<TRIPOS>ATOM
      1 C          62.6954   83.3849   12.4137 C.ar    1  UNL1        0.0839
      2 C          62.6198   84.3198   11.2430 C.ar    1  UNL1        0.0430
      3 N          62.9847   85.6935   11.7226 N.ar    1  UNL1       -0.3271
      4 C          63.2858   85.6075   13.1895 C.ar    1  UNL1        0.1098
      5 C          63.6997   86.6441   14.1916 C.ar    1  UNL1        0.1509
      6 N          63.9348   86.2539   15.6208 N.ar    1  UNL1       -0.2075
      7 C          63.7560   84.8272   16.0479 C.ar    1  UNL1        0.2001
      8 N          63.3421   83.7906   15.0458 N.ar    1  UNL1       -0.2222
      9 C          63.1070   84.1808   13.6167 C.ar    1  UNL1        0.1069
     10 C          62.9956   86.8450   10.7615 C.3     1  UNL1        0.1059
     11 C          62.6417   86.6230    9.3209 C.3     1  UNL1        0.0249
     12 C          62.2768   85.2493    8.8414 C.3     1  UNL1        0.0082
     13 C          62.2659   84.0977    9.8025 C.3     1  UNL1        0.0441
     14 N          63.8785   88.0709   13.7645 N.pl3   1  UNL1       -0.2892
     15 C          63.1658   88.5848   12.5488 C.3     1  UNL1        0.1095
     16 C          63.3446   90.0115   12.1217 C.3     1  UNL1        0.0939
     17 N          64.2361   90.9244   12.9105 N.3     1  UNL1       -0.2695
     18 C          64.9487   90.4105   14.1262 C.3     1  UNL1        0.0939
     19 C          64.7699   88.9837   14.5532 C.3     1  UNL1        0.1095
     20 C          64.4149   92.3511   12.4834 C.3     1  UNL1        0.0769
     21 C          65.7579   93.0080   12.6060 C.3     1  UNL1        0.0437
     22 C          66.3210   93.7845   11.4527 C.ar    1  UNL1       -0.0184
     23 C          66.1551   95.2743   11.3993 C.ar    1  UNL1       -0.0018
     24 C          66.7182   96.0508   10.2461 C.ar    1  UNL1        0.0316
     25 C          67.4473   95.3374    9.1463 C.ar    1  UNL1        0.1674
     26 F          68.0104   96.1140    7.9930 F       1  UNL1       -0.2018
     27 C          67.6132   93.8476    9.1997 C.ar    1  UNL1        0.1671
     28 F          68.3423   93.1342    8.0999 F       1  UNL1       -0.2018
     29 C          67.0501   93.0712   10.3530 C.ar    1  UNL1        0.0277
     30 N          61.6657   81.2716   13.5199 N.am    1  UNL1       -0.3252
     31 C          62.4096   81.9127   12.3860 C.2     1  UNL1        0.2454
     32 O          62.8677   81.0813   11.2245 O.2     1  UNL1       -0.2703
     33 H          61.4782   80.3054   13.5017 H       1  UNL1        0.1453
     34 H          61.3651   81.8172   14.2822 H       1  UNL1        0.1453
@<TRIPOS>BOND
     1    30    31   am
     2    31    32    2
     3    31     1    1
     4     1     2   ar
     5     2     3   ar
     6     3     4   ar
     7     4     5   ar
     8     5    14    1
     9    14    15    1
    10    15    16    1
    11    16    17    1
    12    17    20    1
    13    20    21    1
    14    21    22    1
    15    22    23   ar
    16    23    24   ar
    17    24    25   ar
    18    25    26    1
    19    25    27   ar
    20    27    28    1
    21    27    29   ar
    22    17    18    1
    23    18    19    1
    24     5     6   ar
    25     6     7   ar
    26     7     8   ar
    27     8     9   ar
    28     3    10    1
    29    10    11    1
    30    11    12    1
    31    12    13    1
    32     9     1   ar
    33    13     2    1
    34     9     4   ar
    35    19    14    1
    36    29    22   ar
    37    30    33    1
    38    30    34    1
@<TRIPOS>MOLECULE
*****
 34 38 0 0 0
SMALL
GASTEIGER

@<TRIPOS>ATOM
      1 C          61.3391   86.3233    9.0510 C.ar    1  UNL1        0.0839
      2 C          61.0169   87.7484    9.3904 C.ar    1  UNL1        0.0430
      3 N          61.6616   88.0687   10.7063 N.ar    1  UNL1       -0.3271
      4 C          62.3823   86.8415   11.1802 C.ar    1  UNL1        0.1098
      5 C          63.1942   86.5669   12.4112 C.ar    1  UNL1        0.1509
      6 N          63.8069   85.2135   12.6191 N.ar    1  UNL1       -0.2075
      7 C          63.6076   84.1348   11.5961 C.ar    1  UNL1        0.2001
      8 N          62.7956   84.4094   10.3651 N.ar    1  UNL1       -0.2222
      9 C          62.1829   85.7627   10.1572 C.ar    1  UNL1        0.1069
     10 C          61.5092   89.4364   11.3030 C.3     1  UNL1        0.1059
     11 C          60.7121   90.4838   10.5838 C.3     1  UNL1        0.0249
     12 C          60.0674   90.1636    9.2678 C.3     1  UNL1        0.0082
     13 C          60.2198   88.7959    8.6711 C.3     1  UNL1        0.0441
     14 N          63.3936   87.6456   13.4343 N.pl3   1  UNL1       -0.2892
     15 C          63.5113   87.2893   14.8866 C.3     1  UNL1        0.1095
     16 C          63.7107   88.3680   15.9097 C.3     1  UNL1        0.0939
     17 N          63.7923   89.8030   15.4804 N.3     1  UNL1       -0.2695
     18 C          63.6746   90.1592   14.0281 C.3     1  UNL1        0.0939
     19 C          63.4752   89.0805   13.0051 C.3     1  UNL1        0.1095
     20 C          63.9917   90.8817   16.5034 C.3     1  UNL1        0.0769
     21 C          64.5995   92.1931   16.1019 C.3     1  UNL1        0.0437
     22 C          66.0013   92.2385   15.5701 C.ar    1  UNL1       -0.0184
     23 C          67.1454   92.5291   16.4955 C.ar    1  UNL1       -0.0018
     24 C          68.5472   92.5745   15.9637 C.ar    1  UNL1        0.0316
     25 C          68.8048   92.3293   14.5065 C.ar    1  UNL1        0.1674
     26 F          70.2067   92.3747   13.9747 F       1  UNL1       -0.2018
     27 C          67.6607   92.0387   13.5811 C.ar    1  UNL1        0.1671
     28 F          67.9183   91.7935   12.1238 F       1  UNL1       -0.2018
     29 C          66.2589   91.9933   14.1129 C.ar    1  UNL1        0.0277
     30 N          59.4584   85.6391    7.3943 N.am    1  UNL1       -0.3252
     31 C          60.8953   85.5878    7.8213 C.2     1  UNL1        0.2454
     32 O          61.8887   84.8010    7.0186 O.2     1  UNL1       -0.2703
     33 H          59.1672   85.1564    6.5872 H       1  UNL1        0.1453
     34 H          58.8065   86.1555    7.9211 H       1  UNL1        0.1453
@<TRIPOS>BOND
     1    30    31   am
     2    31    32    2
     3    31     1    1
     4     1     2   ar
     5     2     3   ar
     6     3     4   ar
     7     4     5   ar
     8     5    14    1
     9    14    15    1
    10    15    16    1
    11    16    17    1
    12    17    20    1
    13    20    21    1
    14    21    22    1
    15    22    23   ar
    16    23    24   ar
    17    24    25   ar
    18    25    26    1
    19    25    27   ar
    20    27    28    1
    21    27    29   ar
    22    17    18    1
    23    18    19    1
    24     5     6   ar
    25     6     7   ar
    26     7     8   ar
    27     8     9   ar
    28     3    10    1
    29    10    11    1
    30    11    12    1
    31    12    13    1
    32     9     1   ar
    33    13     2    1
    34     9     4   ar
    35    19    14    1
    36    29    22   ar
    37    30    33    1
    38    30    34    1
