@<TRIPOS>MOLECULE
*****
 45 49 0 0 0
SMALL
GASTEIGER

@<TRIPOS>ATOM
      1 N          64.2077   90.5260   13.2162 N.am    1  UNL1       -0.2770
      2 C          63.0418   89.9992   12.4332 C.2     1  UNL1        0.2254
      3 O          62.1078   89.0046   13.0563 O.2     1  UNL1       -0.2749
      4 C          62.8101   90.4669   11.0270 C.3     1  UNL1        0.0780
      5 C          62.1776   90.6061    9.6740 C.3     1  UNL1        0.0096
      6 C          63.7442   91.4615   10.4038 C.3     1  UNL1        0.0154
      7 C          64.9100   91.9883   11.1869 C.3     1  UNL1        0.0452
      8 C          65.1418   91.5205   12.5930 C.3     1  UNL1        0.1018
      9 C          65.8441   92.9829   10.5637 C.ar    1  UNL1       -0.0197
     10 C          67.1843   92.5382   10.0577 C.ar    1  UNL1       -0.0042
     11 C          68.1184   93.5328    9.4345 C.ar    1  UNL1        0.0005
     12 C          67.7123   94.9720    9.3174 C.ar    1  UNL1        0.0114
     13 C          66.3721   95.4166    9.8234 C.ar    1  UNL1        0.0574
     14 CL         65.9659   96.8559    9.7064 Cl      1  UNL1       -0.0823
     15 C          65.4380   94.4220   10.4466 C.ar    1  UNL1        0.0072
     16 C          66.3077   92.0473   13.3762 C.ar    1  UNL1       -0.0039
     17 C          67.5984   91.2836   13.4049 C.ar    1  UNL1       -0.0018
     18 C          68.7643   91.8103   14.1880 C.ar    1  UNL1        0.0111
     19 C          68.6395   93.1009   14.9424 C.ar    1  UNL1        0.0577
     20 CL         69.8054   93.6276   15.7254 Cl      1  UNL1       -0.0822
     21 C          67.3488   93.8646   14.9136 C.ar    1  UNL1        0.0111
     22 C          66.1829   93.3378   14.1305 C.ar    1  UNL1       -0.0018
     23 C          64.4395   90.0582   14.6225 C.3     1  UNL1        0.0991
     24 C          64.1444   90.9718   15.7750 C.3     1  UNL1        0.0200
     25 C          64.6005   91.9995   16.7677 C.3     1  UNL1        0.0018
     26 C          63.1771   91.5263   16.7784 C.3     1  UNL1        0.0018
     27 C          64.9665   88.6769   14.8762 C.3     1  UNL1        0.1703
     28 S          64.1112   87.6655   15.5802 S.O2    1  UNL1       -0.0115
     29 O          63.2680   88.7706   16.1437 O.2     1  UNL1       -0.1730
     30 O          64.9544   86.5603   15.0167 O.2     1  UNL1       -0.1730
     31 C          63.6989   85.6022   15.3109 C.3     1  UNL1        0.0236
     32 C          63.2560   86.6541   16.2842 C.3     1  UNL1        0.1108
     33 C          62.8131   87.7059   17.2575 C.3     1  UNL1        0.0236
     34 C          62.4008   85.6426   16.9881 C.3     1  UNL1        0.0236
     35 C          61.6563   89.5207   11.1801 C.3     1  UNL1        0.0939
     36 C          60.9829   88.9559    9.9646 C.2     1  UNL1        0.2261
     37 O          59.7925   89.6526    9.3749 O.2     1  UNL1       -0.2749
     38 N          61.5000   87.6945    9.3388 N.am    1  UNL1       -0.2791
     39 C          62.6743   86.8916    9.8142 C.3     1  UNL1        0.0938
     40 C          62.8335   85.7154    8.8969 C.3     1  UNL1        0.0288
     41 C          61.7574   85.7915    7.8545 C.3     1  UNL1        0.0581
     42 C          60.9332   87.0147    8.1277 C.3     1  UNL1        0.0989
     43 C          61.5432   84.8158    6.7356 C.2     1  UNL1        0.0517
     44 O          62.7128   84.3221    5.9367 O.co2   1  UNL1       -0.5491
     45 O          60.1593   84.3337    6.4156 O.co2   1  UNL1       -0.5491
@<TRIPOS>UNITY_ATOM_ATTR
44 1
charge -1
@<TRIPOS>BOND
     1    31    32    1
     2    32    33    1
     3    32    34    1
     4    32    28    1
     5    28    29    2
     6    28    30    2
     7    28    27    1
     8    23    27    1
     9    23    24    1
    10    24    25    1
    11    25    26    1
    12    23     1    1
    13     1     2   am
    14     2     3    2
    15     2     4    1
    16     4     5    1
    17     4    35    1
    18    35    36    1
    19    36    37    2
    20    36    38   am
    21    38    39    1
    22    39    40    1
    23    40    41    1
    24    41    43    1
    25    43    44   ar
    26    43    45   ar
    27    41    42    1
    28     4     6    1
    29     6     7    1
    30     7     9    1
    31     9    10   ar
    32    10    11   ar
    33    11    12   ar
    34    12    13   ar
    35    13    14    1
    36    13    15   ar
    37     7     8    1
    38     8    16    1
    39    16    17   ar
    40    17    18   ar
    41    18    19   ar
    42    19    20    1
    43    19    21   ar
    44    21    22   ar
    45    26    24    1
    46     8     1    1
    47    22    16   ar
    48    42    38    1
    49    15     9   ar
@<TRIPOS>MOLECULE
*****
 45 49 0 0 0
SMALL
GASTEIGER

@<TRIPOS>ATOM
      1 N          64.2282   90.4856   13.2347 N.am    1  UNL1       -0.2770
      2 C          63.1008   89.9002   12.4372 C.2     1  UNL1        0.2254
      3 O          62.1936   88.8797   13.0582 O.2     1  UNL1       -0.2749
      4 C          62.8805   90.3351   11.0187 C.3     1  UNL1        0.0780
      5 C          62.2718   90.4268    9.6509 C.3     1  UNL1        0.0096
      6 C          63.7877   91.3556   10.3977 C.3     1  UNL1        0.0154
      7 C          64.9152   91.9411   11.1952 C.3     1  UNL1        0.0452
      8 C          65.1354   91.5061   12.6137 C.3     1  UNL1        0.1018
      9 C          65.8224   92.9615   10.5742 C.ar    1  UNL1       -0.0197
     10 C          67.1540   92.5450   10.0235 C.ar    1  UNL1       -0.0042
     11 C          68.0612   93.5655    9.4025 C.ar    1  UNL1        0.0005
     12 C          67.6368   95.0024    9.3321 C.ar    1  UNL1        0.0114
     13 C          66.3051   95.4189    9.8828 C.ar    1  UNL1        0.0574
     14 CL         65.8807   96.8559    9.8124 Cl      1  UNL1       -0.0823
     15 C          65.3979   94.3985   10.5038 C.ar    1  UNL1        0.0072
     16 C          66.2629   92.0916   13.4113 C.ar    1  UNL1       -0.0039
     17 C          66.1454   93.4789   13.9695 C.ar    1  UNL1       -0.0018
     18 C          67.2728   94.0644   14.7670 C.ar    1  UNL1        0.0111
     19 C          68.5178   93.2625   15.0064 C.ar    1  UNL1        0.0577
     20 CL         69.6452   93.8480   15.8040 Cl      1  UNL1       -0.0822
     21 C          68.6352   91.8752   14.4483 C.ar    1  UNL1        0.0111
     22 C          67.5077   91.2897   13.6507 C.ar    1  UNL1       -0.0018
     23 C          64.4485   90.0507   14.6533 C.3     1  UNL1        0.0991
     24 C          64.1911   91.0073   15.7797 C.3     1  UNL1        0.0200
     25 C          63.2654   91.5799   16.8117 C.3     1  UNL1        0.0018
     26 C          64.6709   92.0916   16.6984 C.3     1  UNL1        0.0018
     27 C          64.9262   88.6591   14.9455 C.3     1  UNL1        0.1703
     28 S          64.0607   87.7184   15.7304 S.O2    1  UNL1       -0.0115
     29 O          64.8873   86.5607   15.2545 O.2     1  UNL1       -0.1730
     30 O          63.2340   88.8760   16.2063 O.2     1  UNL1       -0.1730
     31 C          62.5940   87.9410   17.2467 C.3     1  UNL1        0.0236
     32 C          63.1952   86.7777   16.5152 C.3     1  UNL1        0.1108
     33 C          63.7964   85.6143   15.7837 C.3     1  UNL1        0.0236
     34 C          62.3297   85.8369   17.3000 C.3     1  UNL1        0.0236
     35 C          61.7619   89.3465   11.1646 C.3     1  UNL1        0.0939
     36 C          61.7623   88.0876   10.3490 C.2     1  UNL1        0.2261
     37 O          61.1946   88.0934    8.9606 O.2     1  UNL1       -0.2749
     38 N          62.3304   86.8230   10.9219 N.am    1  UNL1       -0.2791
     39 C          62.9292   86.6651   12.2880 C.3     1  UNL1        0.0938
     40 C          63.3683   85.2388   12.4395 C.3     1  UNL1        0.0288
     41 C          63.0407   84.5152   11.1670 C.3     1  UNL1        0.0581
     42 C          62.3993   85.4944   10.2291 C.3     1  UNL1        0.0989
     43 C          63.3078   83.0669   10.8825 C.2     1  UNL1        0.0517
     44 O          64.4233   82.6773    9.9586 O.co2   1  UNL1       -0.5491
     45 O          62.4592   82.0081   11.5220 O.co2   1  UNL1       -0.5491
@<TRIPOS>UNITY_ATOM_ATTR
44 1
charge -1
@<TRIPOS>BOND
     1    31    32    1
     2    32    33    1
     3    32    34    1
     4    32    28    1
     5    28    29    2
     6    28    30    2
     7    28    27    1
     8    23    27    1
     9    23    24    1
    10    24    25    1
    11    25    26    1
    12    23     1    1
    13     1     2   am
    14     2     3    2
    15     2     4    1
    16     4     5    1
    17     4    35    1
    18    35    36    1
    19    36    37    2
    20    36    38   am
    21    38    39    1
    22    39    40    1
    23    40    41    1
    24    41    43    1
    25    43    44   ar
    26    43    45   ar
    27    41    42    1
    28     4     6    1
    29     6     7    1
    30     7     9    1
    31     9    10   ar
    32    10    11   ar
    33    11    12   ar
    34    12    13   ar
    35    13    14    1
    36    13    15   ar
    37     7     8    1
    38     8    16    1
    39    16    17   ar
    40    17    18   ar
    41    18    19   ar
    42    19    20    1
    43    19    21   ar
    44    21    22   ar
    45    26    24    1
    46     8     1    1
    47    22    16   ar
    48    42    38    1
    49    15     9   ar
