@<TRIPOS>MOLECULE
*****
 30 33 0 0 0
SMALL
GASTEIGER

@<TRIPOS>ATOM
      1 C          63.4774   90.1044   12.9955 C.ar    1  UNL1        0.1730
      2 C          64.2697   91.3756   12.9163 C.ar    1  UNL1        0.0401
      3 C          64.3419   92.1351   11.6248 C.ar    1  UNL1        0.0039
      4 C          63.6218   91.6235   10.4126 C.ar    1  UNL1        0.0034
      5 C          62.8294   90.3522   10.4918 C.ar    1  UNL1        0.0406
      6 C          62.7572   89.5927   11.7832 C.ar    1  UNL1        0.1789
      7 C          65.1342   93.4063   11.5456 C.2     1  UNL1        0.0113
      8 C          66.3557   93.4759   10.6777 C.2     1  UNL1        0.0873
      9 S          66.9039   92.3618    9.8361 S.3     1  UNL1       -0.0254
     10 C          68.1304   92.8691    9.1372 C.2     1  UNL1        0.2832
     11 O          68.9952   92.0864    8.1943 O.2     1  UNL1       -0.2622
     12 N          68.3401   94.2968    9.5469 N.am    1  UNL1       -0.2425
     13 C          67.2433   94.6719   10.4989 C.2     1  UNL1        0.2583
     14 O          67.0653   96.0081   11.1567 O.2     1  UNL1       -0.2692
     15 H          69.0696   94.8845    9.2440 H       1  UNL1        0.1587
     16 C          64.3242   88.1840   14.5268 C.3     1  UNL1        0.2526
     17 O          63.4051   89.3449   14.2870 O.3     1  UNL1       -0.4684
     18 O          61.9649   88.3216   11.8625 O.3     1  UNL1       -0.4504
     19 C          61.8205   87.4509   10.6496 C.ar    1  UNL1        0.1454
     20 C          61.0690   87.9518    9.4519 C.ar    1  UNL1        0.0382
     21 C          60.9247   87.0811    8.2390 C.ar    1  UNL1        0.0134
     22 C          61.5319   85.7096    8.2238 C.ar    1  UNL1        0.0686
     23 C          62.2835   85.2087    9.4214 C.ar    1  UNL1        0.0126
     24 C          62.8907   83.8372    9.4062 C.ar    1  UNL1        0.0008
     25 C          63.6422   83.3364   10.6038 C.ar    1  UNL1        0.0000
     26 C          63.7865   84.2070   11.8167 C.ar    1  UNL1        0.0001
     27 C          63.1793   85.5785   11.8320 C.ar    1  UNL1        0.0031
     28 C          62.4278   86.0794   10.6343 C.ar    1  UNL1        0.0352
     29 C          61.3876   84.8389    7.0109 C.1     1  UNL1        0.1004
     30 N          61.2433   83.9683    5.7980 N.1     1  UNL1       -0.1908
@<TRIPOS>BOND
     1    16    17    1
     2    17     1    1
     3     1     2   ar
     4     2     3   ar
     5     3     7    1
     6     7     8    2
     7     8     9    1
     8     9    10    1
     9    10    11    2
    10    10    12   am
    11    12    13   am
    12    13    14    2
    13     3     4   ar
    14     4     5   ar
    15     5     6   ar
    16     6    18    1
    17    18    19    1
    18    19    20   ar
    19    20    21   ar
    20    21    22   ar
    21    22    29    1
    22    29    30    3
    23    22    23   ar
    24    23    24   ar
    25    24    25   ar
    26    25    26   ar
    27    26    27   ar
    28    27    28   ar
    29     6     1   ar
    30    28    19   ar
    31    13     8    1
    32    28    23   ar
    33    12    15    1
@<TRIPOS>MOLECULE
*****
 30 33 0 0 0
SMALL
GASTEIGER

@<TRIPOS>ATOM
      1 C          63.2335   87.0498   12.7597 C.ar    1  UNL1        0.1730
      2 C          63.4051   85.6354   12.2909 C.ar    1  UNL1        0.0401
      3 C          62.7890   85.1942   10.9964 C.ar    1  UNL1        0.0039
      4 C          62.0013   86.1676   10.1706 C.ar    1  UNL1        0.0034
      5 C          61.8296   87.5822   10.6393 C.ar    1  UNL1        0.0406
      6 C          62.4457   88.0233   11.9338 C.ar    1  UNL1        0.1789
      7 C          62.9607   83.7798   10.5276 C.2     1  UNL1        0.0113
      8 C          62.8308   82.6460   11.5012 C.2     1  UNL1        0.0873
      9 S          62.5335   82.7715   12.9661 S.3     1  UNL1       -0.0254
     10 C          62.4944   81.3908   13.5511 C.2     1  UNL1        0.2832
     11 O          62.2288   81.0489   14.9871 O.2     1  UNL1       -0.2622
     12 N          62.7676   80.4120   12.4477 N.am    1  UNL1       -0.2425
     13 C          62.9755   81.1878   11.1808 C.2     1  UNL1        0.2583
     14 O          63.2754   80.6073    9.8306 O.2     1  UNL1       -0.2692
     15 H          62.8040   79.4324   12.5390 H       1  UNL1        0.1587
     16 C          64.4797   86.4815   14.9673 C.3     1  UNL1        0.2526
     17 O          63.8496   87.4909   14.0542 O.3     1  UNL1       -0.4684
     18 O          62.2741   89.4378   12.4026 O.3     1  UNL1       -0.4504
     19 C          63.2602   90.4897   11.9892 C.ar    1  UNL1        0.1454
     20 C          63.3409   90.9197   10.5544 C.ar    1  UNL1        0.0382
     21 C          64.3271   91.9717   10.1411 C.ar    1  UNL1        0.0134
     22 C          65.2325   92.5937   11.1624 C.ar    1  UNL1        0.0686
     23 C          65.1519   92.1637   12.5973 C.ar    1  UNL1        0.0126
     24 C          66.0573   92.7857   13.6186 C.ar    1  UNL1        0.0008
     25 C          65.9766   92.3557   15.0534 C.ar    1  UNL1        0.0000
     26 C          64.9905   91.3037   15.4668 C.ar    1  UNL1        0.0001
     27 C          64.0850   90.6817   14.4454 C.ar    1  UNL1        0.0031
     28 C          64.1657   91.1117   13.0107 C.ar    1  UNL1        0.0352
     29 C          66.2186   93.6457   10.7491 C.1     1  UNL1        0.1004
     30 N          67.2048   94.6977   10.3357 N.1     1  UNL1       -0.1908
@<TRIPOS>BOND
     1    16    17    1
     2    17     1    1
     3     1     2   ar
     4     2     3   ar
     5     3     7    1
     6     7     8    2
     7     8     9    1
     8     9    10    1
     9    10    11    2
    10    10    12   am
    11    12    13   am
    12    13    14    2
    13     3     4   ar
    14     4     5   ar
    15     5     6   ar
    16     6    18    1
    17    18    19    1
    18    19    20   ar
    19    20    21   ar
    20    21    22   ar
    21    22    29    1
    22    29    30    3
    23    22    23   ar
    24    23    24   ar
    25    24    25   ar
    26    25    26   ar
    27    26    27   ar
    28    27    28   ar
    29     6     1   ar
    30    28    19   ar
    31    13     8    1
    32    28    23   ar
    33    12    15    1
@<TRIPOS>MOLECULE
*****
 30 33 0 0 0
SMALL
GASTEIGER

@<TRIPOS>ATOM
      1 C          61.7026   87.4398   10.2219 C.ar    1  UNL1        0.1730
      2 C          61.9552   86.0132    9.8331 C.ar    1  UNL1        0.0401
      3 C          62.6939   85.1009   10.7669 C.ar    1  UNL1        0.0039
      4 C          63.1801   85.6151   12.0894 C.ar    1  UNL1        0.0034
      5 C          62.9276   87.0417   12.4783 C.ar    1  UNL1        0.0406
      6 C          62.1888   87.9540   11.5445 C.ar    1  UNL1        0.1789
      7 C          62.9465   83.6744   10.3781 C.2     1  UNL1        0.0113
      8 C          62.8409   82.5870   11.4059 C.2     1  UNL1        0.0873
      9 S          62.4936   82.7725   12.8533 S.3     1  UNL1       -0.0254
     10 C          62.5022   81.4233   13.5088 C.2     1  UNL1        0.2832
     11 O          62.2095   81.1427   14.9529 O.2     1  UNL1       -0.2622
     12 N          62.8547   80.4039   12.4664 N.am    1  UNL1       -0.2425
     13 C          63.0641   81.1230   11.1668 C.2     1  UNL1        0.2583
     14 O          63.4320   80.4895    9.8579 O.2     1  UNL1       -0.2692
     15 H          62.9347   79.4332   12.6101 H       1  UNL1        0.1587
     16 C          59.7674   87.8478    8.5372 C.3     1  UNL1        0.2526
     17 O          60.9639   88.3521    9.2881 O.3     1  UNL1       -0.4684
     18 O          61.9363   89.3806   11.9333 O.3     1  UNL1       -0.4504
     19 C          62.9918   90.4201   11.6983 C.ar    1  UNL1        0.1454
     20 C          63.1672   91.0156   10.3328 C.ar    1  UNL1        0.0382
     21 C          64.2227   92.0551   10.0978 C.ar    1  UNL1        0.0134
     22 C          65.1029   92.4992   11.2283 C.ar    1  UNL1        0.0686
     23 C          64.9276   91.9037   12.5939 C.ar    1  UNL1        0.0126
     24 C          65.8077   92.3477   13.7244 C.ar    1  UNL1        0.0008
     25 C          65.6324   91.7522   15.0899 C.ar    1  UNL1        0.0000
     26 C          64.5768   90.7127   15.3249 C.ar    1  UNL1        0.0001
     27 C          63.6967   90.2686   14.1944 C.ar    1  UNL1        0.0031
     28 C          63.8720   90.8641   12.8289 C.ar    1  UNL1        0.0352
     29 C          66.1584   93.5387   10.9933 C.1     1  UNL1        0.1004
     30 N          67.2140   94.5782   10.7584 N.1     1  UNL1       -0.1908
@<TRIPOS>BOND
     1    16    17    1
     2    17     1    1
     3     1     2   ar
     4     2     3   ar
     5     3     7    1
     6     7     8    2
     7     8     9    1
     8     9    10    1
     9    10    11    2
    10    10    12   am
    11    12    13   am
    12    13    14    2
    13     3     4   ar
    14     4     5   ar
    15     5     6   ar
    16     6    18    1
    17    18    19    1
    18    19    20   ar
    19    20    21   ar
    20    21    22   ar
    21    22    29    1
    22    29    30    3
    23    22    23   ar
    24    23    24   ar
    25    24    25   ar
    26    25    26   ar
    27    26    27   ar
    28    27    28   ar
    29     6     1   ar
    30    28    19   ar
    31    13     8    1
    32    28    23   ar
    33    12    15    1
@<TRIPOS>MOLECULE
*****
 30 33 0 0 0
SMALL
GASTEIGER

@<TRIPOS>ATOM
      1 C          61.9332   88.2109   10.3942 C.ar    1  UNL1        0.1730
      2 C          62.0033   86.7506   10.0589 C.ar    1  UNL1        0.0401
      3 C          62.6713   85.7955   11.0032 C.ar    1  UNL1        0.0039
      4 C          63.2692   86.3008   12.2826 C.ar    1  UNL1        0.0034
      5 C          63.1992   87.7612   12.6179 C.ar    1  UNL1        0.0406
      6 C          62.5312   88.7163   11.6737 C.ar    1  UNL1        0.1789
      7 C          62.7413   84.3352   10.6679 C.2     1  UNL1        0.0113
      8 C          63.0477   83.3331   11.7413 C.2     1  UNL1        0.0873
      9 S          63.3054   83.6403   13.1867 S.3     1  UNL1       -0.0254
     10 C          63.5671   82.3449   13.8964 C.2     1  UNL1        0.2832
     11 O          63.8713   82.1853   15.3564 O.2     1  UNL1       -0.2622
     12 N          63.4711   81.2372   12.8896 N.am    1  UNL1       -0.2425
     13 C          63.1501   81.8478   11.5576 C.2     1  UNL1        0.2583
     14 O          62.9641   81.1040   10.2684 O.2     1  UNL1       -0.2692
     15 H          63.5967   80.2778   13.0711 H       1  UNL1        0.1587
     16 C          60.0910   88.7149    8.6329 C.3     1  UNL1        0.2526
     17 O          61.2652   89.1660    9.4499 O.3     1  UNL1       -0.4684
     18 O          62.4612   90.1766   12.0089 O.3     1  UNL1       -0.4504
     19 C          63.5123   90.7973   12.8806 C.ar    1  UNL1        0.1454
     20 C          63.5472   90.4896   14.3483 C.ar    1  UNL1        0.0382
     21 C          64.5983   91.1102   15.2200 C.ar    1  UNL1        0.0134
     22 C          65.6146   92.0387   14.6240 C.ar    1  UNL1        0.0686
     23 C          65.5798   92.3464   13.1563 C.ar    1  UNL1        0.0126
     24 C          66.5960   93.2749   12.5603 C.ar    1  UNL1        0.0008
     25 C          66.5611   93.5826   11.0927 C.ar    1  UNL1        0.0000
     26 C          65.5100   92.9619   10.2210 C.ar    1  UNL1        0.0001
     27 C          64.4937   92.0335   10.8169 C.ar    1  UNL1        0.0031
     28 C          64.5286   91.7258   12.2846 C.ar    1  UNL1        0.0352
     29 C          66.6657   92.6593   15.4957 C.1     1  UNL1        0.1004
     30 N          67.7169   93.2800   16.3674 N.1     1  UNL1       -0.1908
@<TRIPOS>BOND
     1    16    17    1
     2    17     1    1
     3     1     2   ar
     4     2     3   ar
     5     3     7    1
     6     7     8    2
     7     8     9    1
     8     9    10    1
     9    10    11    2
    10    10    12   am
    11    12    13   am
    12    13    14    2
    13     3     4   ar
    14     4     5   ar
    15     5     6   ar
    16     6    18    1
    17    18    19    1
    18    19    20   ar
    19    20    21   ar
    20    21    22   ar
    21    22    29    1
    22    29    30    3
    23    22    23   ar
    24    23    24   ar
    25    24    25   ar
    26    25    26   ar
    27    26    27   ar
    28    27    28   ar
    29     6     1   ar
    30    28    19   ar
    31    13     8    1
    32    28    23   ar
    33    12    15    1
@<TRIPOS>MOLECULE
*****
 30 33 0 0 0
SMALL
GASTEIGER

@<TRIPOS>ATOM
      1 C          63.5917   89.8956   12.9384 C.ar    1  UNL1        0.1730
      2 C          64.3146   91.2078   12.8642 C.ar    1  UNL1        0.0401
      3 C          64.3502   91.9726   11.5743 C.ar    1  UNL1        0.0039
      4 C          63.6630   91.4251   10.3586 C.ar    1  UNL1        0.0034
      5 C          62.9401   90.1129   10.4327 C.ar    1  UNL1        0.0406
      6 C          62.9044   89.3481   11.7227 C.ar    1  UNL1        0.1789
      7 C          65.0731   93.2848   11.5000 C.2     1  UNL1        0.0113
      8 C          66.3078   93.4143   10.6581 C.2     1  UNL1        0.0873
      9 S          66.9349   92.3252    9.8393 S.3     1  UNL1       -0.0254
     10 C          68.1468   92.8935    9.1623 C.2     1  UNL1        0.2832
     11 O          69.0740   92.1517    8.2458 O.2     1  UNL1       -0.2622
     12 N          68.2687   94.3339    9.5627 N.am    1  UNL1       -0.2425
     13 C          67.1321   94.6559   10.4872 C.2     1  UNL1        0.2583
     14 O          66.8665   95.9857   11.1281 O.2     1  UNL1       -0.2692
     15 H          68.9713   94.9584    9.2701 H       1  UNL1        0.1587
     16 C          63.5700   89.8652   15.5362 C.3     1  UNL1        0.2526
     17 O          63.5561   89.1309   14.2283 O.3     1  UNL1       -0.4684
     18 O          62.1816   88.0359   11.7969 O.3     1  UNL1       -0.4504
     19 C          62.0014   87.2078   10.5592 C.ar    1  UNL1        0.1454
     20 C          62.7645   85.9267   10.3964 C.ar    1  UNL1        0.0382
     21 C          62.5843   85.0986    9.1587 C.ar    1  UNL1        0.0134
     22 C          61.6411   85.5516    8.0839 C.ar    1  UNL1        0.0686
     23 C          60.8780   86.8327    8.2468 C.ar    1  UNL1        0.0126
     24 C          59.9349   87.2857    7.1720 C.ar    1  UNL1        0.0008
     25 C          59.1718   88.5667    7.3349 C.ar    1  UNL1        0.0000
     26 C          59.3519   89.3949    8.5725 C.ar    1  UNL1        0.0001
     27 C          60.2951   88.9419    9.6473 C.ar    1  UNL1        0.0031
     28 C          61.0582   87.6608    9.4844 C.ar    1  UNL1        0.0352
     29 C          61.4610   84.7235    6.8463 C.1     1  UNL1        0.1004
     30 N          61.2809   83.8953    5.6086 N.1     1  UNL1       -0.1908
@<TRIPOS>BOND
     1    16    17    1
     2    17     1    1
     3     1     2   ar
     4     2     3   ar
     5     3     7    1
     6     7     8    2
     7     8     9    1
     8     9    10    1
     9    10    11    2
    10    10    12   am
    11    12    13   am
    12    13    14    2
    13     3     4   ar
    14     4     5   ar
    15     5     6   ar
    16     6    18    1
    17    18    19    1
    18    19    20   ar
    19    20    21   ar
    20    21    22   ar
    21    22    29    1
    22    29    30    3
    23    22    23   ar
    24    23    24   ar
    25    24    25   ar
    26    25    26   ar
    27    26    27   ar
    28    27    28   ar
    29     6     1   ar
    30    28    19   ar
    31    13     8    1
    32    28    23   ar
    33    12    15    1
@<TRIPOS>MOLECULE
*****
 30 33 0 0 0
SMALL
GASTEIGER

@<TRIPOS>ATOM
      1 C          63.2827   90.3314   12.9601 C.ar    1  UNL1        0.1730
      2 C          64.1446   91.5503   12.8140 C.ar    1  UNL1        0.0401
      3 C          64.2845   92.2140   11.4761 C.ar    1  UNL1        0.0039
      4 C          63.5625   91.6588   10.2843 C.ar    1  UNL1        0.0034
      5 C          62.7006   90.4399   10.4304 C.ar    1  UNL1        0.0406
      6 C          62.5607   89.7762   11.7682 C.ar    1  UNL1        0.1789
      7 C          65.1464   93.4329   11.3300 C.2     1  UNL1        0.0113
      8 C          66.4010   93.3704   10.5102 C.2     1  UNL1        0.0873
      9 S          66.9194   92.1659    9.7820 S.3     1  UNL1       -0.0254
     10 C          68.1963   92.5526    9.0965 C.2     1  UNL1        0.2832
     11 O          69.0521   91.6536    8.2542 O.2     1  UNL1       -0.2622
     12 N          68.4672   93.9961    9.4011 N.am    1  UNL1       -0.2425
     13 C          67.3577   94.5017   10.2748 C.2     1  UNL1        0.2583
     14 O          67.2276   95.8938   10.8178 O.2     1  UNL1       -0.2692
     15 H          69.2379   94.5198    9.0833 H       1  UNL1        0.1587
     16 C          63.8209   90.2541   15.5006 C.3     1  UNL1        0.2526
     17 O          63.1428   89.6678   14.2980 O.3     1  UNL1       -0.4684
     18 O          61.6988   88.5573   11.9143 O.3     1  UNL1       -0.4504
     19 C          62.2460   87.2053   11.5639 C.ar    1  UNL1        0.1454
     20 C          63.0377   86.4314   12.5759 C.ar    1  UNL1        0.0382
     21 C          63.5850   85.0794   12.2255 C.ar    1  UNL1        0.0134
     22 C          63.3405   84.5015   10.8632 C.ar    1  UNL1        0.0686
     23 C          62.5488   85.2754    9.8511 C.ar    1  UNL1        0.0126
     24 C          62.3043   84.6974    8.4887 C.ar    1  UNL1        0.0008
     25 C          61.5127   85.4714    7.4767 C.ar    1  UNL1        0.0000
     26 C          60.9654   86.8233    7.8271 C.ar    1  UNL1        0.0001
     27 C          61.2098   87.4013    9.1895 C.ar    1  UNL1        0.0031
     28 C          62.0015   86.6274   10.2015 C.ar    1  UNL1        0.0352
     29 C          63.8878   83.1495   10.5128 C.1     1  UNL1        0.1004
     30 N          64.4350   81.7976   10.1624 N.1     1  UNL1       -0.1908
@<TRIPOS>BOND
     1    16    17    1
     2    17     1    1
     3     1     2   ar
     4     2     3   ar
     5     3     7    1
     6     7     8    2
     7     8     9    1
     8     9    10    1
     9    10    11    2
    10    10    12   am
    11    12    13   am
    12    13    14    2
    13     3     4   ar
    14     4     5   ar
    15     5     6   ar
    16     6    18    1
    17    18    19    1
    18    19    20   ar
    19    20    21   ar
    20    21    22   ar
    21    22    29    1
    22    29    30    3
    23    22    23   ar
    24    23    24   ar
    25    24    25   ar
    26    25    26   ar
    27    26    27   ar
    28    27    28   ar
    29     6     1   ar
    30    28    19   ar
    31    13     8    1
    32    28    23   ar
    33    12    15    1
@<TRIPOS>MOLECULE
*****
 30 33 0 0 0
SMALL
GASTEIGER

@<TRIPOS>ATOM
      1 C          62.8878   87.1170   12.5985 C.ar    1  UNL1        0.1730
      2 C          63.3304   85.6838   12.6114 C.ar    1  UNL1        0.0401
      3 C          64.2538   85.1937   13.6871 C.ar    1  UNL1        0.0039
      4 C          64.7346   86.1367   14.7499 C.ar    1  UNL1        0.0034
      5 C          64.2920   87.5699   14.7370 C.ar    1  UNL1        0.0406
      6 C          63.3686   88.0601   13.6613 C.ar    1  UNL1        0.1789
      7 C          64.6963   83.7606   13.7001 C.2     1  UNL1        0.0113
      8 C          63.6857   82.6650   13.8684 C.2     1  UNL1        0.0873
      9 S          62.2061   82.8481   14.0338 S.3     1  UNL1       -0.0254
     10 C          61.5832   81.4902   14.1685 C.2     1  UNL1        0.2832
     11 O          60.1223   81.2048   14.3530 O.2     1  UNL1       -0.2622
     12 N          62.6777   80.4679   14.0863 N.am    1  UNL1       -0.2425
     13 C          63.9772   81.1939   13.9008 C.2     1  UNL1        0.2583
     14 O          65.3304   80.5602   13.7706 O.2     1  UNL1       -0.2692
     15 H          62.5634   79.4918   14.1439 H       1  UNL1        0.1587
     16 C          61.1324   86.6302   10.7460 C.3     1  UNL1        0.2526
     17 O          61.9644   87.6071   11.5227 O.3     1  UNL1       -0.4684
     18 O          62.9261   89.4932   13.6483 O.3     1  UNL1       -0.4504
     19 C          63.6767   90.5026   12.8312 C.ar    1  UNL1        0.1454
     20 C          63.3930   90.6411   11.3649 C.ar    1  UNL1        0.0382
     21 C          64.1437   91.6505   10.5478 C.ar    1  UNL1        0.0134
     22 C          65.1780   92.5215   11.1971 C.ar    1  UNL1        0.0686
     23 C          65.4617   92.3830   12.6636 C.ar    1  UNL1        0.0126
     24 C          66.4960   93.2539   13.3129 C.ar    1  UNL1        0.0008
     25 C          66.7797   93.1155   14.7792 C.ar    1  UNL1        0.0000
     26 C          66.0290   92.1060   15.5963 C.ar    1  UNL1        0.0001
     27 C          64.9947   91.2351   14.9470 C.ar    1  UNL1        0.0031
     28 C          64.7111   91.3736   13.4806 C.ar    1  UNL1        0.0352
     29 C          65.9286   93.5309   10.3800 C.1     1  UNL1        0.1004
     30 N          66.6793   94.5403    9.5630 N.1     1  UNL1       -0.1908
@<TRIPOS>BOND
     1    16    17    1
     2    17     1    1
     3     1     2   ar
     4     2     3   ar
     5     3     7    1
     6     7     8    2
     7     8     9    1
     8     9    10    1
     9    10    11    2
    10    10    12   am
    11    12    13   am
    12    13    14    2
    13     3     4   ar
    14     4     5   ar
    15     5     6   ar
    16     6    18    1
    17    18    19    1
    18    19    20   ar
    19    20    21   ar
    20    21    22   ar
    21    22    29    1
    22    29    30    3
    23    22    23   ar
    24    23    24   ar
    25    24    25   ar
    26    25    26   ar
    27    26    27   ar
    28    27    28   ar
    29     6     1   ar
    30    28    19   ar
    31    13     8    1
    32    28    23   ar
    33    12    15    1
@<TRIPOS>MOLECULE
*****
 30 33 0 0 0
SMALL
GASTEIGER

@<TRIPOS>ATOM
      1 C          63.3872   90.3383   13.0664 C.ar    1  UNL1        0.1730
      2 C          64.2185   91.5712   12.8692 C.ar    1  UNL1        0.0401
      3 C          64.3764   92.1579   11.4977 C.ar    1  UNL1        0.0039
      4 C          63.7030   91.5117   10.3235 C.ar    1  UNL1        0.0034
      5 C          62.8717   90.2788   10.5206 C.ar    1  UNL1        0.0406
      6 C          62.7138   89.6921   11.8921 C.ar    1  UNL1        0.1789
      7 C          65.2077   93.3907   11.3006 C.2     1  UNL1        0.0113
      8 C          66.4566   93.3287   10.4719 C.2     1  UNL1        0.0873
      9 S          66.9973   92.1114    9.7821 S.3     1  UNL1       -0.0254
     10 C          68.2589   92.5034    9.0715 C.2     1  UNL1        0.2832
     11 O          69.1287   91.5954    8.2538 O.2     1  UNL1       -0.2622
     12 N          68.4978   93.9628    9.3222 N.am    1  UNL1       -0.2425
     13 C          67.3839   94.4730   10.1877 C.2     1  UNL1        0.2583
     14 O          67.2252   95.8801   10.6822 O.2     1  UNL1       -0.2692
     15 H          69.2531   94.4929    8.9789 H       1  UNL1        0.1587
     16 C          63.8429   90.4376   15.6222 C.3     1  UNL1        0.2526
     17 O          63.2293   89.7517   14.4378 O.3     1  UNL1       -0.4684
     18 O          61.8824   88.4592   12.0893 O.3     1  UNL1       -0.4504
     19 C          62.3964   87.1268   11.6305 C.ar    1  UNL1        0.1454
     20 C          62.1248   86.6594   10.2314 C.ar    1  UNL1        0.0382
     21 C          62.6388   85.3269    9.7727 C.ar    1  UNL1        0.0134
     22 C          63.4243   84.4619   10.7131 C.ar    1  UNL1        0.0686
     23 C          63.6960   84.9293   12.1124 C.ar    1  UNL1        0.0126
     24 C          64.4816   84.0642   13.0528 C.ar    1  UNL1        0.0008
     25 C          64.7532   84.5316   14.4520 C.ar    1  UNL1        0.0000
     26 C          64.2393   85.8641   14.9107 C.ar    1  UNL1        0.0001
     27 C          63.4537   86.7291   13.9702 C.ar    1  UNL1        0.0031
     28 C          63.1820   86.2617   12.5711 C.ar    1  UNL1        0.0352
     29 C          63.9383   83.1294   10.2544 C.1     1  UNL1        0.1004
     30 N          64.4523   81.7970    9.7957 N.1     1  UNL1       -0.1908
@<TRIPOS>BOND
     1    16    17    1
     2    17     1    1
     3     1     2   ar
     4     2     3   ar
     5     3     7    1
     6     7     8    2
     7     8     9    1
     8     9    10    1
     9    10    11    2
    10    10    12   am
    11    12    13   am
    12    13    14    2
    13     3     4   ar
    14     4     5   ar
    15     5     6   ar
    16     6    18    1
    17    18    19    1
    18    19    20   ar
    19    20    21   ar
    20    21    22   ar
    21    22    29    1
    22    29    30    3
    23    22    23   ar
    24    23    24   ar
    25    24    25   ar
    26    25    26   ar
    27    26    27   ar
    28    27    28   ar
    29     6     1   ar
    30    28    19   ar
    31    13     8    1
    32    28    23   ar
    33    12    15    1
@<TRIPOS>MOLECULE
*****
 30 33 0 0 0
SMALL
GASTEIGER

@<TRIPOS>ATOM
      1 C          62.4090   89.4876   11.4877 C.ar    1  UNL1        0.1730
      2 C          63.1498   90.7121   11.9370 C.ar    1  UNL1        0.0401
      3 C          64.1364   90.6208   13.0632 C.ar    1  UNL1        0.0039
      4 C          64.3822   89.3050   13.7401 C.ar    1  UNL1        0.0034
      5 C          63.6415   88.0804   13.2908 C.ar    1  UNL1        0.0406
      6 C          62.6549   88.1718   12.1646 C.ar    1  UNL1        0.1789
      7 C          64.8771   91.8453   13.5125 C.2     1  UNL1        0.0113
      8 C          65.5958   92.6975   12.5089 C.2     1  UNL1        0.0873
      9 S          65.6620   92.4527   11.0305 S.3     1  UNL1       -0.0254
     10 C          66.4816   93.5481   10.4154 C.2     1  UNL1        0.2832
     11 O          66.8041   93.6957    8.9580 O.2     1  UNL1       -0.2622
     12 N          66.9220   94.4699   11.5137 N.am    1  UNL1       -0.2425
     13 C          66.3746   93.9443   12.8076 C.2     1  UNL1        0.2583
     14 O          66.5713   94.5577   14.1621 O.2     1  UNL1       -0.2692
     15 H          67.4735   95.2781   11.4045 H       1  UNL1        0.1587
     16 C          60.1259   90.3073   10.5574 C.3     1  UNL1        0.2526
     17 O          61.4225   89.5789   10.3615 O.3     1  UNL1       -0.4684
     18 O          61.9141   86.9473   11.7153 O.3     1  UNL1       -0.4504
     19 C          62.2994   85.5995   12.2492 C.ar    1  UNL1        0.1454
     20 C          62.0765   85.2745   13.6965 C.ar    1  UNL1        0.0382
     21 C          62.4618   83.9267   14.2304 C.ar    1  UNL1        0.0134
     22 C          63.0700   82.9040   13.3171 C.ar    1  UNL1        0.0686
     23 C          63.2929   83.2290   11.8698 C.ar    1  UNL1        0.0126
     24 C          63.9011   82.2063   10.9565 C.ar    1  UNL1        0.0008
     25 C          64.1240   82.5314    9.5092 C.ar    1  UNL1        0.0000
     26 C          63.7387   83.8792    8.9753 C.ar    1  UNL1        0.0001
     27 C          63.1305   84.9019    9.8886 C.ar    1  UNL1        0.0031
     28 C          62.9076   84.5768   11.3358 C.ar    1  UNL1        0.0352
     29 C          63.4552   81.5562   13.8511 C.1     1  UNL1        0.1004
     30 N          63.8405   80.2085   14.3850 N.1     1  UNL1       -0.1908
@<TRIPOS>BOND
     1    16    17    1
     2    17     1    1
     3     1     2   ar
     4     2     3   ar
     5     3     7    1
     6     7     8    2
     7     8     9    1
     8     9    10    1
     9    10    11    2
    10    10    12   am
    11    12    13   am
    12    13    14    2
    13     3     4   ar
    14     4     5   ar
    15     5     6   ar
    16     6    18    1
    17    18    19    1
    18    19    20   ar
    19    20    21   ar
    20    21    22   ar
    21    22    29    1
    22    29    30    3
    23    22    23   ar
    24    23    24   ar
    25    24    25   ar
    26    25    26   ar
    27    26    27   ar
    28    27    28   ar
    29     6     1   ar
    30    28    19   ar
    31    13     8    1
    32    28    23   ar
    33    12    15    1
