@<TRIPOS>MOLECULE
*****
 6 6 0 0 0
SMALL
GASTEIGER

@<TRIPOS>ATOM
      1 C          61.5724   81.0749   14.1267 C.ar    1  UNL1        0.0945
      2 C          62.4745   80.5928   13.0295 C.ar    1  UNL1        0.1190
      3 N          63.7364   81.4022   13.0775 N.ar    1  UNL1       -0.2225
      4 C          63.6143   82.3847   14.2045 C.ar    1  UNL1        0.1751
      5 N          62.2769   82.1823   14.8528 N.ar    1  UNL1       -0.3337
      6 H          61.9235   82.6877   15.6203 H       1  UNL1        0.1675
@<TRIPOS>BOND
     1     1     2   ar
     2     2     3   ar
     3     3     4   ar
     4     4     5   ar
     5     5     1   ar
     6     5     6    1
@<TRIPOS>MOLECULE
*****
 6 6 0 0 0
SMALL
GASTEIGER

@<TRIPOS>ATOM
      1 C          66.3738   92.9485   10.3044 C.ar    1  UNL1        0.0945
      2 C          67.7695   92.4021   10.2470 C.ar    1  UNL1        0.1190
      3 N          68.6319   93.4064    9.5416 N.ar    1  UNL1       -0.2225
      4 C          67.7691   94.5736    9.1631 C.ar    1  UNL1        0.1751
      5 N          66.3736   94.2906    9.6345 N.ar    1  UNL1       -0.3337
      6 H          65.5943   94.8819    9.5237 H       1  UNL1        0.1675
@<TRIPOS>BOND
     1     1     2   ar
     2     2     3   ar
     3     3     4   ar
     4     4     5   ar
     5     5     1   ar
     6     5     6    1
@<TRIPOS>MOLECULE
*****
 6 6 0 0 0
SMALL
GASTEIGER

@<TRIPOS>ATOM
      1 C          67.6235   91.8786   13.9474 C.ar    1  UNL1        0.0945
      2 C          66.6047   92.2470   14.9848 C.ar    1  UNL1        0.1190
      3 N          67.3101   92.9782   16.0883 N.ar    1  UNL1       -0.2225
      4 C          68.7650   93.0617   15.7329 C.ar    1  UNL1        0.1751
      5 N          68.9587   92.3821   14.4098 N.ar    1  UNL1       -0.3337
      6 H          69.8123   92.2838   13.9292 H       1  UNL1        0.1675
@<TRIPOS>BOND
     1     1     2   ar
     2     2     3   ar
     3     3     4   ar
     4     4     5   ar
     5     5     1   ar
     6     5     6    1
@<TRIPOS>MOLECULE
*****
 6 6 0 0 0
SMALL
GASTEIGER

@<TRIPOS>ATOM
      1 C          63.1048   82.3694   14.0020 C.ar    1  UNL1        0.0945
      2 C          62.9281   83.5862   13.1428 C.ar    1  UNL1        0.1190
      3 N          62.5108   84.7225   14.0285 N.ar    1  UNL1       -0.2225
      4 C          62.4295   84.2081   15.4352 C.ar    1  UNL1        0.1751
      5 N          62.7966   82.7538   15.4188 N.ar    1  UNL1       -0.3337
      6 H          62.8296   82.1564   16.2006 H       1  UNL1        0.1675
@<TRIPOS>BOND
     1     1     2   ar
     2     2     3   ar
     3     3     4   ar
     4     4     5   ar
     5     5     1   ar
     6     5     6    1
@<TRIPOS>MOLECULE
*****
 6 6 0 0 0
SMALL
GASTEIGER

@<TRIPOS>ATOM
      1 C          68.5306   92.5140   15.2405 C.ar    1  UNL1        0.0945
      2 C          67.2757   93.1743   15.7296 C.ar    1  UNL1        0.1190
      3 N          66.2679   93.1346   14.6193 N.ar    1  UNL1       -0.2225
      4 C          66.9000   92.4498   13.4439 C.ar    1  UNL1        0.1751
      5 N          68.2984   92.0662   13.8278 N.ar    1  UNL1       -0.3337
      6 H          68.9495   91.6021   13.2535 H       1  UNL1        0.1675
@<TRIPOS>BOND
     1     1     2   ar
     2     2     3   ar
     3     3     4   ar
     4     4     5   ar
     5     5     1   ar
     6     5     6    1
@<TRIPOS>MOLECULE
*****
 6 6 0 0 0
SMALL
GASTEIGER

@<TRIPOS>ATOM
      1 C          64.6933   84.1362   13.9259 C.ar    1  UNL1        0.0945
      2 C          63.9792   83.3860   15.0110 C.ar    1  UNL1        0.1190
      3 N          63.5545   82.0592   14.4550 N.ar    1  UNL1       -0.2225
      4 C          64.0061   81.9893   13.0263 C.ar    1  UNL1        0.1751
      5 N          64.7099   83.2730   12.6993 N.ar    1  UNL1       -0.3337
      6 H          65.1121   83.5077   11.8319 H       1  UNL1        0.1675
@<TRIPOS>BOND
     1     1     2   ar
     2     2     3   ar
     3     3     4   ar
     4     4     5   ar
     5     5     1   ar
     6     5     6    1
@<TRIPOS>MOLECULE
*****
 6 6 0 0 0
SMALL
GASTEIGER

@<TRIPOS>ATOM
      1 C          64.3007   82.2760   12.5298 C.ar    1  UNL1        0.0945
      2 C          63.5980   81.6256   13.6844 C.ar    1  UNL1        0.1190
      3 N          63.6574   82.5652   14.8522 N.ar    1  UNL1       -0.2225
      4 C          64.3968   83.7964   14.4193 C.ar    1  UNL1        0.1751
      5 N          64.7943   83.6177   12.9840 N.ar    1  UNL1       -0.3337
      6 H          65.2919   84.2670   12.4362 H       1  UNL1        0.1675
@<TRIPOS>BOND
     1     1     2   ar
     2     2     3   ar
     3     3     4   ar
     4     4     5   ar
     5     5     1   ar
     6     5     6    1
@<TRIPOS>MOLECULE
*****
 6 6 0 0 0
SMALL
GASTEIGER

@<TRIPOS>ATOM
      1 C          60.4900   88.9404    9.5639 C.ar    1  UNL1        0.0945
      2 C          60.2094   87.9779   10.6797 C.ar    1  UNL1        0.1190
      3 N          59.7364   88.7668   11.8645 N.ar    1  UNL1       -0.2225
      4 C          59.7246   90.2169   11.4810 C.ar    1  UNL1        0.1751
      5 N          60.1904   90.3242   10.0592 N.ar    1  UNL1       -0.3337
      6 H          60.2831   91.1566    9.5419 H       1  UNL1        0.1675
@<TRIPOS>BOND
     1     1     2   ar
     2     2     3   ar
     3     3     4   ar
     4     4     5   ar
     5     5     1   ar
     6     5     6    1
@<TRIPOS>MOLECULE
*****
 6 6 0 0 0
SMALL
GASTEIGER

@<TRIPOS>ATOM
      1 C          46.0386   78.8026    8.3031 C.ar    1  UNL1        0.0945
      2 C          45.3797   77.8573    7.3427 C.ar    1  UNL1        0.1190
      3 N          45.5350   76.4661    7.8814 N.ar    1  UNL1       -0.2225
      4 C          46.2900   76.5514    9.1747 C.ar    1  UNL1        0.1751
      5 N          46.6012   77.9954    9.4353 N.ar    1  UNL1       -0.3337
      6 H          47.0891   78.3510   10.2130 H       1  UNL1        0.1675
@<TRIPOS>BOND
     1     1     2   ar
     2     2     3   ar
     3     3     4   ar
     4     4     5   ar
     5     5     1   ar
     6     5     6    1
