@<TRIPOS>MOLECULE
*****
 33 35 0 0 0
SMALL
GASTEIGER

@<TRIPOS>ATOM
      1 C          61.0461   88.8361   10.3969 C.ar    1  UNL1       -0.0024
      2 C          59.9906   89.1239    9.3708 C.ar    1  UNL1       -0.0026
      3 C          59.7923   88.1876    8.2157 C.ar    1  UNL1       -0.0001
      4 C          60.6496   86.9635    8.0869 C.ar    1  UNL1        0.0045
      5 C          61.7051   86.6757    9.1131 C.ar    1  UNL1        0.0531
      6 C          61.9034   87.6120   10.2680 C.ar    1  UNL1        0.0019
      7 C          62.5624   85.4515    8.9842 C.2     1  UNL1        0.2458
      8 O          63.0073   84.9867    7.6293 O.2     1  UNL1       -0.2701
      9 N          62.9748   84.6922   10.2104 N.am    1  UNL1       -0.3005
     10 H          62.6828   84.9973   11.0998 H       1  UNL1        0.1497
     11 C          63.8321   83.4681   10.0816 C.3     1  UNL1        0.0944
     12 C          64.5943   82.9580   11.2685 C.3     1  UNL1        0.0477
     13 C          63.9794   83.0142   12.6354 C.ar    1  UNL1       -0.0174
     14 C          64.5593   83.9186   13.6821 C.ar    1  UNL1        0.0165
     15 C          63.9444   83.9748   15.0491 C.ar    1  UNL1        0.0986
     16 N          62.7494   83.1266   15.3694 N.ar    1  UNL1       -0.2423
     17 C          62.1694   82.2222   14.3227 C.ar    1  UNL1        0.0986
     18 C          62.7844   82.1660   12.9557 C.ar    1  UNL1        0.0165
     19 C          61.2444   89.7724   11.5519 C.3     1  UNL1        0.1166
     20 C          63.1650   90.4206   13.1770 C.2     1  UNL1        0.2462
     21 O          62.3967   89.8285   14.3212 O.2     1  UNL1       -0.2701
     22 N          62.5889   90.3925   11.7924 N.am    1  UNL1       -0.2969
     23 H          63.0931   90.7812   11.0414 H       1  UNL1        0.1501
     24 C          67.1984   92.2810   13.8984 C.ar    1  UNL1        0.1724
     25 C          66.6464   91.2851   14.8748 C.ar    1  UNL1        0.0402
     26 C          65.3020   90.6650   14.6343 C.ar    1  UNL1        0.0078
     27 C          64.5095   91.0407   13.4175 C.ar    1  UNL1        0.0566
     28 C          65.0615   92.0367   12.4411 C.ar    1  UNL1        0.0446
     29 C          66.4060   92.6568   12.6816 C.ar    1  UNL1        0.1725
     30 C          68.9159   93.3738   15.5127 C.3     1  UNL1        0.2526
     31 O          68.5429   92.9012   14.1389 O.3     1  UNL1       -0.4684
     32 O          66.9580   93.6528   11.7051 O.3     1  UNL1       -0.4684
     33 C          66.2658   94.9681   11.5032 C.3     1  UNL1        0.2526
@<TRIPOS>BOND
     1    30    31    1
     2    31    24    1
     3    24    25   ar
     4    25    26   ar
     5    26    27   ar
     6    27    20    1
     7    20    21    2
     8    20    22   am
     9    22    19    1
    10    19     1    1
    11     1     2   ar
    12     2     3   ar
    13     3     4   ar
    14     4     5   ar
    15     5     7    1
    16     7     8    2
    17     7     9   am
    18     9    11    1
    19    11    12    1
    20    12    13    1
    21    13    14   ar
    22    14    15   ar
    23    15    16   ar
    24    16    17   ar
    25    17    18   ar
    26     5     6   ar
    27    27    28   ar
    28    28    29   ar
    29    29    32    1
    30    32    33    1
    31    29    24   ar
    32     6     1   ar
    33    18    13   ar
    34    22    23    1
    35     9    10    1
@<TRIPOS>MOLECULE
*****
 33 35 0 0 0
SMALL
GASTEIGER

@<TRIPOS>ATOM
      1 C          60.9488   89.0544   10.0220 C.ar    1  UNL1       -0.0024
      2 C          60.0200   89.0168    8.8447 C.ar    1  UNL1       -0.0026
      3 C          59.9146   87.7737    8.0119 C.ar    1  UNL1       -0.0001
      4 C          60.7380   86.5681    8.3564 C.ar    1  UNL1        0.0045
      5 C          61.6668   86.6057    9.5337 C.ar    1  UNL1        0.0531
      6 C          61.7722   87.8488   10.3665 C.ar    1  UNL1        0.0019
      7 C          62.4901   85.4001    9.8782 C.2     1  UNL1        0.2458
      8 O          63.3943   84.7902    8.8485 O.2     1  UNL1       -0.2701
      9 N          62.4093   84.8045   11.2526 N.am    1  UNL1       -0.3005
     10 H          61.8159   85.2048   11.9284 H       1  UNL1        0.1497
     11 C          63.2327   83.5989   11.5971 C.3     1  UNL1        0.0944
     12 C          64.1551   83.6336   12.7794 C.3     1  UNL1        0.0477
     13 C          63.7853   84.4291   13.9961 C.ar    1  UNL1       -0.0174
     14 C          62.6781   83.9584   14.8919 C.ar    1  UNL1        0.0165
     15 C          62.3083   84.7538   16.1086 C.ar    1  UNL1        0.0986
     16 N          63.0456   86.0200   16.4296 N.ar    1  UNL1       -0.2423
     17 C          64.1528   86.4907   15.5338 C.ar    1  UNL1        0.0986
     18 C          64.5226   85.6952   14.3171 C.ar    1  UNL1        0.0165
     19 C          61.0542   90.2976   10.8548 C.3     1  UNL1        0.1166
     20 C          62.9952   90.5608   12.5616 C.2     1  UNL1        0.2462
     21 O          62.2391   89.7238   13.5504 O.2     1  UNL1       -0.2701
     22 N          62.4027   90.8476   11.2138 N.am    1  UNL1       -0.2969
     23 H          62.8990   91.3970   10.5648 H       1  UNL1        0.1501
     24 C          67.0408   92.2110   13.6386 C.ar    1  UNL1        0.1724
     25 C          66.3632   91.2318   14.5507 C.ar    1  UNL1        0.0402
     26 C          65.0146   90.6817   14.1917 C.ar    1  UNL1        0.0078
     27 C          64.3437   91.1108   12.9206 C.ar    1  UNL1        0.0566
     28 C          65.0213   92.0901   12.0085 C.ar    1  UNL1        0.0446
     29 C          66.3699   92.6401   12.3676 C.ar    1  UNL1        0.1725
     30 C          68.7841   92.8981   15.4382 C.3     1  UNL1        0.2526
     31 O          68.3893   92.7611   13.9976 O.3     1  UNL1       -0.4684
     32 O          67.0475   93.6194   11.4554 O.3     1  UNL1       -0.4684
     33 C          67.1280   93.3416    9.9836 C.3     1  UNL1        0.2526
@<TRIPOS>BOND
     1    30    31    1
     2    31    24    1
     3    24    25   ar
     4    25    26   ar
     5    26    27   ar
     6    27    20    1
     7    20    21    2
     8    20    22   am
     9    22    19    1
    10    19     1    1
    11     1     2   ar
    12     2     3   ar
    13     3     4   ar
    14     4     5   ar
    15     5     7    1
    16     7     8    2
    17     7     9   am
    18     9    11    1
    19    11    12    1
    20    12    13    1
    21    13    14   ar
    22    14    15   ar
    23    15    16   ar
    24    16    17   ar
    25    17    18   ar
    26     5     6   ar
    27    27    28   ar
    28    28    29   ar
    29    29    32    1
    30    32    33    1
    31    29    24   ar
    32     6     1   ar
    33    18    13   ar
    34    22    23    1
    35     9    10    1
@<TRIPOS>MOLECULE
*****
 33 35 0 0 0
SMALL
GASTEIGER

@<TRIPOS>ATOM
      1 C          61.9532   86.8476    9.9998 C.ar    1  UNL1       -0.0024
      2 C          61.8171   86.6912    8.5142 C.ar    1  UNL1       -0.0026
      3 C          62.2585   85.4206    7.8502 C.ar    1  UNL1       -0.0001
      4 C          62.8361   84.3064    8.6718 C.ar    1  UNL1        0.0045
      5 C          62.9722   84.4629   10.1575 C.ar    1  UNL1        0.0531
      6 C          62.5308   85.7334   10.8214 C.ar    1  UNL1        0.0019
      7 C          63.5498   83.3487   10.9791 C.2     1  UNL1        0.2458
      8 O          65.0134   83.0324   10.8905 O.2     1  UNL1       -0.2701
      9 N          62.6637   82.5509   11.8893 N.am    1  UNL1       -0.3005
     10 H          61.7031   82.7585   11.9474 H       1  UNL1        0.1497
     11 C          63.2413   81.4367   12.7109 C.3     1  UNL1        0.0944
     12 C          63.8352   81.7277   14.0573 C.3     1  UNL1        0.0477
     13 C          63.7577   83.1128   14.6277 C.ar    1  UNL1       -0.0174
     14 C          62.5676   83.5225   15.4435 C.ar    1  UNL1        0.0165
     15 C          62.4901   84.9076   16.0139 C.ar    1  UNL1        0.0986
     16 N          63.6029   85.8831   15.7685 N.ar    1  UNL1       -0.2423
     17 C          64.7930   85.4734   14.9527 C.ar    1  UNL1        0.0986
     18 C          64.8705   84.0883   14.3823 C.ar    1  UNL1        0.0165
     19 C          61.5118   88.1181   10.6638 C.3     1  UNL1        0.1166
     20 C          63.0729   89.7608   11.9345 C.2     1  UNL1        0.2462
     21 O          62.8316   89.0052   13.2076 O.2     1  UNL1       -0.2701
     22 N          62.4130   89.3173   10.6626 N.am    1  UNL1       -0.2969
     23 H          62.5714   89.8132    9.8270 H       1  UNL1        0.1501
     24 C          65.7764   93.3582   11.9309 C.ar    1  UNL1        0.1724
     25 C          65.1172   92.9141   10.6588 C.ar    1  UNL1        0.0402
     26 C          64.2160   91.7150   10.6600 C.ar    1  UNL1        0.0078
     27 C          63.9741   90.9599   11.9333 C.ar    1  UNL1        0.0566
     28 C          64.6333   91.4040   13.2054 C.ar    1  UNL1        0.0446
     29 C          65.5345   92.6031   13.2042 C.ar    1  UNL1        0.1725
     30 C          66.5160   95.6158   10.8793 C.3     1  UNL1        0.2526
     31 O          66.6776   94.5573   11.9297 O.3     1  UNL1       -0.4684
     32 O          66.1937   93.0471   14.4763 O.3     1  UNL1       -0.4684
     33 C          65.7871   92.4363   15.7846 C.3     1  UNL1        0.2526
@<TRIPOS>BOND
     1    30    31    1
     2    31    24    1
     3    24    25   ar
     4    25    26   ar
     5    26    27   ar
     6    27    20    1
     7    20    21    2
     8    20    22   am
     9    22    19    1
    10    19     1    1
    11     1     2   ar
    12     2     3   ar
    13     3     4   ar
    14     4     5   ar
    15     5     7    1
    16     7     8    2
    17     7     9   am
    18     9    11    1
    19    11    12    1
    20    12    13    1
    21    13    14   ar
    22    14    15   ar
    23    15    16   ar
    24    16    17   ar
    25    17    18   ar
    26     5     6   ar
    27    27    28   ar
    28    28    29   ar
    29    29    32    1
    30    32    33    1
    31    29    24   ar
    32     6     1   ar
    33    18    13   ar
    34    22    23    1
    35     9    10    1
@<TRIPOS>MOLECULE
*****
 33 35 0 0 0
SMALL
GASTEIGER

@<TRIPOS>ATOM
      1 C          60.4972   88.1369   10.0867 C.ar    1  UNL1       -0.0024
      2 C          59.3982   88.2006    9.0679 C.ar    1  UNL1       -0.0026
      3 C          59.3508   87.1992    7.9520 C.ar    1  UNL1       -0.0001
      4 C          60.4025   86.1341    7.8551 C.ar    1  UNL1        0.0045
      5 C          61.5016   86.0703    8.8740 C.ar    1  UNL1        0.0531
      6 C          61.5489   87.0717    9.9897 C.ar    1  UNL1        0.0019
      7 C          62.5533   85.0052    8.7770 C.2     1  UNL1        0.2458
      8 O          63.0788   84.5900    7.4349 O.2     1  UNL1       -0.2701
      9 N          63.0795   84.3553   10.0224 N.am    1  UNL1       -0.3005
     10 H          62.7346   84.6278   10.9033 H       1  UNL1        0.1497
     11 C          64.1312   83.2901    9.9254 C.3     1  UNL1        0.0944
     12 C          64.5591   82.5445   11.1546 C.3     1  UNL1        0.0477
     13 C          63.8659   82.7925   12.4615 C.ar    1  UNL1       -0.0174
     14 C          64.2572   83.9683   13.3067 C.ar    1  UNL1        0.0165
     15 C          63.5641   84.2163   14.6136 C.ar    1  UNL1        0.0986
     16 N          62.4797   83.2885   15.0754 N.ar    1  UNL1       -0.2423
     17 C          62.0884   82.1127   14.2302 C.ar    1  UNL1        0.0986
     18 C          62.7816   81.8647   12.9233 C.ar    1  UNL1        0.0165
     19 C          60.5445   89.1383   11.2025 C.3     1  UNL1        0.1166
     20 C          62.8846   90.0652   11.8465 C.2     1  UNL1        0.2462
     21 O          63.2017   88.7776   12.5474 O.2     1  UNL1       -0.2701
     22 N          61.5560   90.2456   11.1740 N.am    1  UNL1       -0.2969
     23 H          61.3479   91.0907   10.7140 H       1  UNL1        0.1501
     24 C          65.9191   93.3871   11.7611 C.ar    1  UNL1        0.1724
     25 C          65.1576   93.0347   10.5177 C.ar    1  UNL1        0.0402
     26 C          64.1462   91.9274   10.5462 C.ar    1  UNL1        0.0078
     27 C          63.8961   91.1725   11.8180 C.ar    1  UNL1        0.0566
     28 C          64.6575   91.5249   13.0614 C.ar    1  UNL1        0.0446
     29 C          65.6690   92.6322   13.0329 C.ar    1  UNL1        0.1725
     30 C          66.6953   95.7033   10.8764 C.3     1  UNL1        0.2526
     31 O          66.9305   94.4944   11.7326 O.3     1  UNL1       -0.4684
     32 O          66.4304   92.9846   14.2764 O.3     1  UNL1       -0.4684
     33 C          67.7000   92.2586   14.6094 C.3     1  UNL1        0.2526
@<TRIPOS>BOND
     1    30    31    1
     2    31    24    1
     3    24    25   ar
     4    25    26   ar
     5    26    27   ar
     6    27    20    1
     7    20    21    2
     8    20    22   am
     9    22    19    1
    10    19     1    1
    11     1     2   ar
    12     2     3   ar
    13     3     4   ar
    14     4     5   ar
    15     5     7    1
    16     7     8    2
    17     7     9   am
    18     9    11    1
    19    11    12    1
    20    12    13    1
    21    13    14   ar
    22    14    15   ar
    23    15    16   ar
    24    16    17   ar
    25    17    18   ar
    26     5     6   ar
    27    27    28   ar
    28    28    29   ar
    29    29    32    1
    30    32    33    1
    31    29    24   ar
    32     6     1   ar
    33    18    13   ar
    34    22    23    1
    35     9    10    1
@<TRIPOS>MOLECULE
*****
 33 35 0 0 0
SMALL
GASTEIGER

@<TRIPOS>ATOM
      1 C          60.6567   88.8153    9.7637 C.ar    1  UNL1       -0.0024
      2 C          59.8332   88.5224    8.5448 C.ar    1  UNL1       -0.0026
      3 C          59.9107   87.1733    7.8936 C.ar    1  UNL1       -0.0001
      4 C          60.8117   86.1170    8.4615 C.ar    1  UNL1        0.0045
      5 C          61.6352   86.4099    9.6806 C.ar    1  UNL1        0.0531
      6 C          61.5577   87.7590   10.3317 C.ar    1  UNL1        0.0019
      7 C          62.5362   85.3537   10.2485 C.2     1  UNL1        0.2458
      8 O          62.6487   85.1836   11.7346 O.2     1  UNL1       -0.2701
      9 N          63.3247   84.4675    9.3303 N.am    1  UNL1       -0.3005
     10 H          63.2509   84.5791    8.3550 H       1  UNL1        0.1497
     11 C          64.2257   83.4113    9.8983 C.3     1  UNL1        0.0944
     12 C          63.6669   82.0703   10.2717 C.3     1  UNL1        0.0477
     13 C          63.3687   81.7555   11.7077 C.ar    1  UNL1       -0.0174
     14 C          63.8719   82.6595   12.7938 C.ar    1  UNL1        0.0165
     15 C          63.5737   82.3448   14.2297 C.ar    1  UNL1        0.0986
     16 N          62.7723   81.1260   14.5796 N.ar    1  UNL1       -0.2423
     17 C          62.2691   80.2221   13.4935 C.ar    1  UNL1        0.0986
     18 C          62.5674   80.5368   12.0576 C.ar    1  UNL1        0.0165
     19 C          60.5793   90.1644   10.4149 C.3     1  UNL1        0.1166
     20 C          62.8742   90.9387   11.3549 C.2     1  UNL1        0.2462
     21 O          63.4017   91.0722    9.9570 O.2     1  UNL1       -0.2701
     22 N          61.4630   90.4849   11.5838 N.am    1  UNL1       -0.2969
     23 H          61.1168   90.3973   12.5012 H       1  UNL1        0.1501
     24 C          65.5255   91.9001   14.8615 C.ar    1  UNL1        0.1724
     25 C          65.8974   92.3742   13.4879 C.ar    1  UNL1        0.0402
     26 C          65.0137   92.0537   12.3190 C.ar    1  UNL1        0.0078
     27 C          63.7580   91.2592   12.5237 C.ar    1  UNL1        0.0566
     28 C          63.3860   90.7851   13.8974 C.ar    1  UNL1        0.0446
     29 C          64.2698   91.1056   15.0663 C.ar    1  UNL1        0.1725
     30 C          67.5823   93.1385   15.8543 C.3     1  UNL1        0.2526
     31 O          66.4092   92.2206   16.0304 O.3     1  UNL1       -0.4684
     32 O          63.8978   90.6315   16.4399 O.3     1  UNL1       -0.4684
     33 C          63.1042   89.3699   16.6086 C.3     1  UNL1        0.2526
@<TRIPOS>BOND
     1    30    31    1
     2    31    24    1
     3    24    25   ar
     4    25    26   ar
     5    26    27   ar
     6    27    20    1
     7    20    21    2
     8    20    22   am
     9    22    19    1
    10    19     1    1
    11     1     2   ar
    12     2     3   ar
    13     3     4   ar
    14     4     5   ar
    15     5     7    1
    16     7     8    2
    17     7     9   am
    18     9    11    1
    19    11    12    1
    20    12    13    1
    21    13    14   ar
    22    14    15   ar
    23    15    16   ar
    24    16    17   ar
    25    17    18   ar
    26     5     6   ar
    27    27    28   ar
    28    28    29   ar
    29    29    32    1
    30    32    33    1
    31    29    24   ar
    32     6     1   ar
    33    18    13   ar
    34    22    23    1
    35     9    10    1
@<TRIPOS>MOLECULE
*****
 33 35 0 0 0
SMALL
GASTEIGER

@<TRIPOS>ATOM
      1 C          60.5691   88.8404    9.6075 C.ar    1  UNL1       -0.0024
      2 C          59.6415   88.6333    8.4471 C.ar    1  UNL1       -0.0026
      3 C          59.6569   87.3342    7.6971 C.ar    1  UNL1       -0.0001
      4 C          60.5999   86.2423    8.1077 C.ar    1  UNL1        0.0045
      5 C          61.5275   86.4495    9.2682 C.ar    1  UNL1        0.0531
      6 C          61.5121   87.7485   10.0180 C.ar    1  UNL1        0.0019
      7 C          62.4705   85.3576    9.6787 C.2     1  UNL1        0.2458
      8 O          63.5338   84.8889    8.7302 O.2     1  UNL1       -0.2701
      9 N          62.3502   84.7345   11.0379 N.am    1  UNL1       -0.3005
     10 H          61.6524   85.0421   11.6605 H       1  UNL1        0.1497
     11 C          63.2932   83.6426   11.4485 C.3     1  UNL1        0.0944
     12 C          64.2626   83.8712   12.5701 C.3     1  UNL1        0.0477
     13 C          63.7807   84.4318   13.8753 C.ar    1  UNL1       -0.0174
     14 C          62.5730   83.8447   14.5436 C.ar    1  UNL1        0.0165
     15 C          62.0911   84.4054   15.8487 C.ar    1  UNL1        0.0986
     16 N          62.8170   85.5531   16.4857 N.ar    1  UNL1       -0.2423
     17 C          64.0248   86.1402   15.8174 C.ar    1  UNL1        0.0986
     18 C          64.5066   85.5796   14.5122 C.ar    1  UNL1        0.0165
     19 C          60.5538   90.1394   10.3574 C.3     1  UNL1        0.1166
     20 C          62.8413   91.0519   11.1848 C.2     1  UNL1        0.2462
     21 O          63.1703   91.4924    9.7892 O.2     1  UNL1       -0.2701
     22 N          61.5330   90.3754   11.4689 N.am    1  UNL1       -0.2969
     23 H          61.3171   90.0862   12.3848 H       1  UNL1        0.1501
     24 C          65.7790   91.7598   14.5192 C.ar    1  UNL1        0.1724
     25 C          66.1043   92.2081   13.1253 C.ar    1  UNL1        0.0402
     26 C          65.1251   91.9722   12.0138 C.ar    1  UNL1        0.0078
     27 C          63.8205   91.2878   12.2963 C.ar    1  UNL1        0.0566
     28 C          63.4953   90.8395   13.6902 C.ar    1  UNL1        0.0446
     29 C          64.4745   91.0754   14.8017 C.ar    1  UNL1        0.1725
     30 C          67.9999   92.7987   15.3785 C.3     1  UNL1        0.2526
     31 O          66.7583   91.9957   15.6307 O.3     1  UNL1       -0.4684
     32 O          64.1492   90.6270   16.1957 O.3     1  UNL1       -0.4684
     33 C          63.1214   89.5575   16.4188 C.3     1  UNL1        0.2526
@<TRIPOS>BOND
     1    30    31    1
     2    31    24    1
     3    24    25   ar
     4    25    26   ar
     5    26    27   ar
     6    27    20    1
     7    20    21    2
     8    20    22   am
     9    22    19    1
    10    19     1    1
    11     1     2   ar
    12     2     3   ar
    13     3     4   ar
    14     4     5   ar
    15     5     7    1
    16     7     8    2
    17     7     9   am
    18     9    11    1
    19    11    12    1
    20    12    13    1
    21    13    14   ar
    22    14    15   ar
    23    15    16   ar
    24    16    17   ar
    25    17    18   ar
    26     5     6   ar
    27    27    28   ar
    28    28    29   ar
    29    29    32    1
    30    32    33    1
    31    29    24   ar
    32     6     1   ar
    33    18    13   ar
    34    22    23    1
    35     9    10    1
@<TRIPOS>MOLECULE
*****
 33 35 0 0 0
SMALL
GASTEIGER

@<TRIPOS>ATOM
      1 C          60.5987   88.7727    9.3161 C.ar    1  UNL1       -0.0024
      2 C          59.6760   88.3736    8.2029 C.ar    1  UNL1       -0.0026
      3 C          59.6465   86.9515    7.7265 C.ar    1  UNL1       -0.0001
      4 C          60.5398   85.9286    8.3633 C.ar    1  UNL1        0.0045
      5 C          61.4626   86.3277    9.4766 C.ar    1  UNL1        0.0531
      6 C          61.4920   87.7497    9.9529 C.ar    1  UNL1        0.0019
      7 C          62.3558   85.3047   10.1135 C.2     1  UNL1        0.2458
      8 O          62.2914   85.0702   11.5936 O.2     1  UNL1       -0.2701
      9 N          63.3136   84.5163    9.2701 N.am    1  UNL1       -0.3005
     10 H          63.3559   84.6702    8.2987 H       1  UNL1        0.1497
     11 C          64.2069   83.4933    9.9070 C.3     1  UNL1        0.0944
     12 C          63.6643   82.1407   10.2618 C.3     1  UNL1        0.0477
     13 C          63.3791   81.7992   11.6943 C.ar    1  UNL1       -0.0174
     14 C          62.6005   80.5617   12.0296 C.ar    1  UNL1        0.0165
     15 C          62.3152   80.2202   13.4620 C.ar    1  UNL1        0.0986
     16 N          62.8085   81.1161   14.5592 N.ar    1  UNL1       -0.2423
     17 C          63.5871   82.3535   14.2240 C.ar    1  UNL1        0.0986
     18 C          63.8724   82.6951   12.7915 C.ar    1  UNL1        0.0165
     19 C          60.6282   90.1948    9.7925 C.3     1  UNL1        0.1166
     20 C          62.4511   90.5723   11.6048 C.2     1  UNL1        0.2462
     21 O          61.6809   89.7088   12.5593 O.2     1  UNL1       -0.2701
     22 N          61.9248   90.8153   10.2214 N.am    1  UNL1       -0.2969
     23 H          62.4303   91.3820    9.5949 H       1  UNL1        0.1501
     24 C          66.3407   92.4339   12.8915 C.ar    1  UNL1        0.1724
     25 C          65.8652   92.5917   11.4777 C.ar    1  UNL1        0.0402
     26 C          64.5687   91.9711   11.0488 C.ar    1  UNL1        0.0078
     27 C          63.7476   91.1928   12.0337 C.ar    1  UNL1        0.0566
     28 C          64.2232   91.0350   13.4475 C.ar    1  UNL1        0.0446
     29 C          65.5197   91.6555   13.8764 C.ar    1  UNL1        0.1725
     30 C          68.7924   92.1820   13.7135 C.3     1  UNL1        0.2526
     31 O          67.6372   93.0544   13.3204 O.3     1  UNL1       -0.4684
     32 O          65.9952   91.4977   15.2903 O.3     1  UNL1       -0.4684
     33 C          66.0287   92.6843   16.2072 C.3     1  UNL1        0.2526
@<TRIPOS>BOND
     1    30    31    1
     2    31    24    1
     3    24    25   ar
     4    25    26   ar
     5    26    27   ar
     6    27    20    1
     7    20    21    2
     8    20    22   am
     9    22    19    1
    10    19     1    1
    11     1     2   ar
    12     2     3   ar
    13     3     4   ar
    14     4     5   ar
    15     5     7    1
    16     7     8    2
    17     7     9   am
    18     9    11    1
    19    11    12    1
    20    12    13    1
    21    13    14   ar
    22    14    15   ar
    23    15    16   ar
    24    16    17   ar
    25    17    18   ar
    26     5     6   ar
    27    27    28   ar
    28    28    29   ar
    29    29    32    1
    30    32    33    1
    31    29    24   ar
    32     6     1   ar
    33    18    13   ar
    34    22    23    1
    35     9    10    1
@<TRIPOS>MOLECULE
*****
 33 35 0 0 0
SMALL
GASTEIGER

@<TRIPOS>ATOM
      1 C          62.2233   86.9912    9.7111 C.ar    1  UNL1       -0.0024
      2 C          62.3291   86.4495    8.3163 C.ar    1  UNL1       -0.0026
      3 C          62.7067   85.0147    8.0956 C.ar    1  UNL1       -0.0001
      4 C          62.9787   84.1216    9.2697 C.ar    1  UNL1        0.0045
      5 C          62.8729   84.6633   10.6645 C.ar    1  UNL1        0.0531
      6 C          62.4953   86.0981   10.8851 C.ar    1  UNL1        0.0019
      7 C          63.1449   83.7702   11.8385 C.2     1  UNL1        0.2458
      8 O          63.8062   82.4399   11.6316 O.2     1  UNL1       -0.2701
      9 N          62.7555   84.2075   13.2196 N.am    1  UNL1       -0.3005
     10 H          62.3215   85.0807   13.3554 H       1  UNL1        0.1497
     11 C          63.0275   83.3144   14.3936 C.3     1  UNL1        0.0944
     12 C          63.5467   83.8969   15.6747 C.3     1  UNL1        0.0477
     13 C          63.5314   85.3822   15.8837 C.ar    1  UNL1       -0.0174
     14 C          64.2546   86.2819   14.9259 C.ar    1  UNL1        0.0165
     15 C          64.2392   87.7672   15.1350 C.ar    1  UNL1        0.0986
     16 N          63.5006   88.3527   16.3019 N.ar    1  UNL1       -0.2423
     17 C          62.7775   87.4530   17.2597 C.ar    1  UNL1        0.0986
     18 C          62.7928   85.9677   17.0506 C.ar    1  UNL1        0.0165
     19 C          61.8456   88.4260    9.9318 C.3     1  UNL1        0.1166
     20 C          62.8535   89.8928   11.8246 C.2     1  UNL1        0.2462
     21 O          61.8013   89.3949   12.7706 O.2     1  UNL1       -0.2701
     22 N          62.8756   89.4084   10.4052 N.am    1  UNL1       -0.2969
     23 H          63.5662   89.7352    9.7842 H       1  UNL1        0.1501
     24 C          65.9435   92.8399   13.2447 C.ar    1  UNL1        0.1724
     25 C          65.2878   91.9108   14.2229 C.ar    1  UNL1        0.0402
     26 C          64.2578   90.9284   13.7495 C.ar    1  UNL1        0.0078
     27 C          63.8835   90.8752   12.2980 C.ar    1  UNL1        0.0566
     28 C          64.5391   91.8043   11.3198 C.ar    1  UNL1        0.0446
     29 C          65.5691   92.7867   11.7932 C.ar    1  UNL1        0.1725
     30 C          67.5972   93.6608   15.0726 C.3     1  UNL1        0.2526
     31 O          66.9735   93.8223   13.7181 O.3     1  UNL1       -0.4684
     32 O          66.2247   93.7158   10.8149 O.3     1  UNL1       -0.4684
     33 C          65.7881   95.1485   10.7330 C.3     1  UNL1        0.2526
@<TRIPOS>BOND
     1    30    31    1
     2    31    24    1
     3    24    25   ar
     4    25    26   ar
     5    26    27   ar
     6    27    20    1
     7    20    21    2
     8    20    22   am
     9    22    19    1
    10    19     1    1
    11     1     2   ar
    12     2     3   ar
    13     3     4   ar
    14     4     5   ar
    15     5     7    1
    16     7     8    2
    17     7     9   am
    18     9    11    1
    19    11    12    1
    20    12    13    1
    21    13    14   ar
    22    14    15   ar
    23    15    16   ar
    24    16    17   ar
    25    17    18   ar
    26     5     6   ar
    27    27    28   ar
    28    28    29   ar
    29    29    32    1
    30    32    33    1
    31    29    24   ar
    32     6     1   ar
    33    18    13   ar
    34    22    23    1
    35     9    10    1
@<TRIPOS>MOLECULE
*****
 33 35 0 0 0
SMALL
GASTEIGER

@<TRIPOS>ATOM
      1 C          59.5648   88.8755    7.5975 C.ar    1  UNL1       -0.0024
      2 C          59.4136   87.4057    7.3391 C.ar    1  UNL1       -0.0026
      3 C          59.8740   86.4126    8.3648 C.ar    1  UNL1       -0.0001
      4 C          60.4856   86.8894    9.6487 C.ar    1  UNL1        0.0045
      5 C          60.6368   88.3593    9.9071 C.ar    1  UNL1        0.0531
      6 C          60.1764   89.3523    8.8815 C.ar    1  UNL1        0.0019
      7 C          61.2485   88.8361   11.1910 C.2     1  UNL1        0.2458
      8 O          60.3686   89.2895   12.3180 O.2     1  UNL1       -0.2701
      9 N          62.7401   88.8594   11.3480 N.am    1  UNL1       -0.3005
     10 H          63.3176   88.5618   10.6083 H       1  UNL1        0.1497
     11 C          63.3517   89.3362   12.6320 C.3     1  UNL1        0.0944
     12 C          63.4300   90.8051   12.9254 C.3     1  UNL1        0.0477
     13 C          64.6625   91.5782   12.5606 C.ar    1  UNL1       -0.0174
     14 C          65.7283   91.8192   13.5882 C.ar    1  UNL1        0.0165
     15 C          66.9608   92.5923   13.2234 C.ar    1  UNL1        0.0986
     16 N          67.1276   93.1245   11.8310 N.ar    1  UNL1       -0.2423
     17 C          66.0618   92.8836   10.8034 C.ar    1  UNL1        0.0986
     18 C          64.8293   92.1105   11.1682 C.ar    1  UNL1        0.0165
     19 C          59.1044   89.8686    6.5719 C.3     1  UNL1        0.1166
     20 C          59.6894   91.5690    4.6968 C.2     1  UNL1        0.2462
     21 O          58.3409   92.2067    4.8544 O.2     1  UNL1       -0.2701
     22 N          60.0711   90.4000    5.5555 N.am    1  UNL1       -0.2969
     23 H          60.9562   89.9814    5.4521 H       1  UNL1        0.1501
     24 C          62.5898   93.1632    1.6477 C.ar    1  UNL1        0.1724
     25 C          63.0233   92.0970    2.6095 C.ar    1  UNL1        0.0402
     26 C          62.0565   91.5656    3.6259 C.ar    1  UNL1        0.0078
     27 C          60.6562   92.1004    3.6804 C.ar    1  UNL1        0.0566
     28 C          60.2227   93.1666    2.7186 C.ar    1  UNL1        0.0446
     29 C          61.1894   93.6980    1.7022 C.ar    1  UNL1        0.1725
     30 C          65.0208   93.3967    0.7616 C.3     1  UNL1        0.2526
     31 O          63.5565   93.6946    0.6314 O.3     1  UNL1       -0.4684
     32 O          60.7558   94.7643    0.7404 O.3     1  UNL1       -0.4684
     33 C          59.9076   95.9054    1.2181 C.3     1  UNL1        0.2526
@<TRIPOS>BOND
     1    30    31    1
     2    31    24    1
     3    24    25   ar
     4    25    26   ar
     5    26    27   ar
     6    27    20    1
     7    20    21    2
     8    20    22   am
     9    22    19    1
    10    19     1    1
    11     1     2   ar
    12     2     3   ar
    13     3     4   ar
    14     4     5   ar
    15     5     7    1
    16     7     8    2
    17     7     9   am
    18     9    11    1
    19    11    12    1
    20    12    13    1
    21    13    14   ar
    22    14    15   ar
    23    15    16   ar
    24    16    17   ar
    25    17    18   ar
    26     5     6   ar
    27    27    28   ar
    28    28    29   ar
    29    29    32    1
    30    32    33    1
    31    29    24   ar
    32     6     1   ar
    33    18    13   ar
    34    22    23    1
    35     9    10    1
