@<TRIPOS>MOLECULE
*****
 23 25 0 0 0
SMALL
GASTEIGER

@<TRIPOS>ATOM
      1 C          64.0133   88.2815   13.6969 C.ar    1  UNL1       -0.0214
      2 C          64.3386   89.7417   13.8058 C.ar    1  UNL1       -0.0042
      3 C          63.7919   90.7090   12.7981 C.ar    1  UNL1       -0.0003
      4 C          62.9200   90.2161   11.6815 C.ar    1  UNL1       -0.0000
      5 C          62.5947   88.7559   11.5726 C.ar    1  UNL1       -0.0003
      6 C          63.1413   87.7886   12.5803 C.ar    1  UNL1       -0.0042
      7 C          61.7228   88.2629   10.4560 C.ar    1  UNL1        0.0001
      8 C          61.6387   86.7944   10.1625 C.ar    1  UNL1        0.0023
      9 C          60.7668   86.3015    9.0459 C.ar    1  UNL1        0.0296
     10 C          59.9789   87.2771    8.2229 C.ar    1  UNL1        0.1401
     11 F          59.1070   86.7842    7.1063 F       1  UNL1       -0.2042
     12 C          60.0630   88.7456    8.5164 C.ar    1  UNL1        0.0296
     13 C          60.9349   89.2386    9.6330 C.ar    1  UNL1        0.0023
     14 C          64.5599   87.3141   14.7046 C.3     1  UNL1        0.0380
     15 C          63.0789   88.8516   17.1729 C.3     1  UNL1        0.0496
     16 C          62.9644   87.3918   16.8479 C.2     1  UNL1        0.0643
     17 N          62.1491   86.3823   17.6003 N.2     1  UNL1       -0.1566
     18 N          62.3260   85.0517   16.9308 N.2     1  UNL1       -0.1515
     19 C          63.2506   85.2388   15.7646 C.2     1  UNL1        0.0996
     20 C          63.6452   86.6851   15.7133 C.3     1  UNL1        0.0853
     21 C          63.7014   84.1677   14.8162 C.2     1  UNL1        0.0885
     22 O          63.6360   84.4007   13.3358 O.co2   1  UNL1       -0.5433
     23 O          64.2176   82.8636   15.3480 O.co2   1  UNL1       -0.5433
@<TRIPOS>UNITY_ATOM_ATTR
22 1
charge -1
@<TRIPOS>BOND
     1    15    16    1
     2    16    17    2
     3    17    18    1
     4    18    19    2
     5    19    21    1
     6    21    22   ar
     7    21    23   ar
     8    19    20    1
     9    20    14    1
    10    14     1    1
    11     1     2   ar
    12     2     3   ar
    13     3     4   ar
    14     4     5   ar
    15     5     7    1
    16     7     8   ar
    17     8     9   ar
    18     9    10   ar
    19    10    11    1
    20    10    12   ar
    21    12    13   ar
    22     5     6   ar
    23    20    16    1
    24     6     1   ar
    25    13     7   ar
@<TRIPOS>MOLECULE
*****
 23 25 0 0 0
SMALL
GASTEIGER

@<TRIPOS>ATOM
      1 C          63.8719   87.3765   13.4798 C.ar    1  UNL1       -0.0214
      2 C          63.1789   88.1003   12.3637 C.ar    1  UNL1       -0.0042
      3 C          62.3292   87.3392   11.3898 C.ar    1  UNL1       -0.0003
      4 C          62.1724   85.8542   11.5320 C.ar    1  UNL1       -0.0000
      5 C          62.8655   85.1303   12.6481 C.ar    1  UNL1       -0.0003
      6 C          63.7152   85.8915   13.6220 C.ar    1  UNL1       -0.0042
      7 C          62.7087   83.6453   12.7903 C.ar    1  UNL1        0.0001
      8 C          62.2682   83.0595   14.0990 C.ar    1  UNL1        0.0023
      9 C          62.1114   81.5746   14.2412 C.ar    1  UNL1        0.0296
     10 C          62.3953   80.6753   13.0747 C.ar    1  UNL1        0.1401
     11 F          62.2385   79.1903   13.2169 F       1  UNL1       -0.2042
     12 C          62.8359   81.2611   11.7660 C.ar    1  UNL1        0.0296
     13 C          62.9926   82.7461   11.6238 C.ar    1  UNL1        0.0023
     14 C          64.7217   88.1376   14.4538 C.3     1  UNL1        0.0380
     15 C          62.9354   88.0070   17.1818 C.3     1  UNL1        0.0496
     16 C          63.3284   89.2525   16.4440 C.2     1  UNL1        0.0643
     17 N          62.9692   90.6566   16.8305 N.2     1  UNL1       -0.1566
     18 N          63.5684   91.5844   15.8155 N.2     1  UNL1       -0.1515
     19 C          64.2978   90.7537   14.8017 C.2     1  UNL1        0.0996
     20 C          64.1495   89.3125   15.1901 C.3     1  UNL1        0.0853
     21 C          65.0444   91.2731   13.6089 C.2     1  UNL1        0.0885
     22 O          66.5068   91.5883   13.7184 O.co2   1  UNL1       -0.5433
     23 O          64.3287   91.4773   12.3065 O.co2   1  UNL1       -0.5433
@<TRIPOS>UNITY_ATOM_ATTR
22 1
charge -1
@<TRIPOS>BOND
     1    15    16    1
     2    16    17    2
     3    17    18    1
     4    18    19    2
     5    19    21    1
     6    21    22   ar
     7    21    23   ar
     8    19    20    1
     9    20    14    1
    10    14     1    1
    11     1     2   ar
    12     2     3   ar
    13     3     4   ar
    14     4     5   ar
    15     5     7    1
    16     7     8   ar
    17     8     9   ar
    18     9    10   ar
    19    10    11    1
    20    10    12   ar
    21    12    13   ar
    22     5     6   ar
    23    20    16    1
    24     6     1   ar
    25    13     7   ar
@<TRIPOS>MOLECULE
*****
 23 25 0 0 0
SMALL
GASTEIGER

@<TRIPOS>ATOM
      1 C          63.4873   84.3104   10.9299 C.ar    1  UNL1       -0.0214
      2 C          63.6477   83.9040    9.4950 C.ar    1  UNL1       -0.0042
      3 C          63.0715   84.7579    8.4047 C.ar    1  UNL1       -0.0003
      4 C          62.3349   86.0183    8.7494 C.ar    1  UNL1       -0.0000
      5 C          62.1744   86.4247   10.1843 C.ar    1  UNL1       -0.0003
      6 C          62.7506   85.5708   11.2745 C.ar    1  UNL1       -0.0042
      7 C          61.4378   87.6851   10.5289 C.ar    1  UNL1        0.0001
      8 C          60.1372   87.6141   11.2728 C.ar    1  UNL1        0.0023
      9 C          59.4005   88.8745   11.6175 C.ar    1  UNL1        0.0296
     10 C          59.9644   90.2059   11.2183 C.ar    1  UNL1        0.1401
     11 F          59.2278   91.4662   11.5629 F       1  UNL1       -0.2042
     12 C          61.2650   90.2768   10.4744 C.ar    1  UNL1        0.0296
     13 C          62.0017   89.0165   10.1297 C.ar    1  UNL1        0.0023
     14 C          64.0635   83.4565   12.0202 C.3     1  UNL1        0.0380
     15 C          63.0229   80.5427   10.9827 C.3     1  UNL1        0.0496
     16 C          62.7007   81.1746   12.3044 C.2     1  UNL1        0.0643
     17 N          61.8436   80.5781   13.3812 N.2     1  UNL1       -0.1566
     18 N          61.7923   81.5488   14.5236 N.2     1  UNL1       -0.1515
     19 C          62.6176   82.7452   14.1528 C.2     1  UNL1        0.0996
     20 C          63.1790   82.5139   12.7813 C.3     1  UNL1        0.0853
     21 C          62.8421   83.9596   15.0042 C.2     1  UNL1        0.0885
     22 O          64.2326   84.3357   15.4225 O.co2   1  UNL1       -0.5433
     23 O          61.6760   84.7980   15.4373 O.co2   1  UNL1       -0.5433
@<TRIPOS>UNITY_ATOM_ATTR
22 1
charge -1
@<TRIPOS>BOND
     1    15    16    1
     2    16    17    2
     3    17    18    1
     4    18    19    2
     5    19    21    1
     6    21    22   ar
     7    21    23   ar
     8    19    20    1
     9    20    14    1
    10    14     1    1
    11     1     2   ar
    12     2     3   ar
    13     3     4   ar
    14     4     5   ar
    15     5     7    1
    16     7     8   ar
    17     8     9   ar
    18     9    10   ar
    19    10    11    1
    20    10    12   ar
    21    12    13   ar
    22     5     6   ar
    23    20    16    1
    24     6     1   ar
    25    13     7   ar
@<TRIPOS>MOLECULE
*****
 23 25 0 0 0
SMALL
GASTEIGER

@<TRIPOS>ATOM
      1 C          61.7928   87.1785   10.9261 C.ar    1  UNL1       -0.0214
      2 C          61.1520   87.8551    9.7508 C.ar    1  UNL1       -0.0042
      3 C          61.3969   89.3135    9.4997 C.ar    1  UNL1       -0.0003
      4 C          62.2827   90.0952   10.4239 C.ar    1  UNL1       -0.0000
      5 C          62.9236   89.4186   11.5993 C.ar    1  UNL1       -0.0003
      6 C          62.6786   87.9603   11.8504 C.ar    1  UNL1       -0.0042
      7 C          63.8094   90.2004   12.5235 C.ar    1  UNL1        0.0001
      8 C          64.1074   89.6774   13.8974 C.ar    1  UNL1        0.0023
      9 C          64.9932   90.4592   14.8216 C.ar    1  UNL1        0.0296
     10 C          65.5810   91.7639   14.3720 C.ar    1  UNL1        0.1401
     11 F          66.4668   92.5456   15.2962 F       1  UNL1       -0.2042
     12 C          65.2830   92.2868   12.9981 C.ar    1  UNL1        0.0296
     13 C          64.3972   91.5050   12.0738 C.ar    1  UNL1        0.0023
     14 C          61.5478   85.7201   11.1773 C.3     1  UNL1        0.0380
     15 C          63.1415   84.9636    8.4319 C.3     1  UNL1        0.0496
     16 C          63.4076   84.3904    9.7923 C.2     1  UNL1        0.0643
     17 N          64.4529   83.3689   10.1295 N.2     1  UNL1       -0.1566
     18 N          64.3664   83.0853   11.6000 N.2     1  UNL1       -0.1515
     19 C          63.2676   83.9316   12.1714 C.2     1  UNL1        0.0996
     20 C          62.6750   84.7381   11.0542 C.3     1  UNL1        0.0853
     21 C          62.8371   83.9652   13.6079 C.2     1  UNL1        0.0885
     22 O          62.9933   85.2241   14.4083 O.co2   1  UNL1       -0.5433
     23 O          62.2502   82.7400   14.2440 O.co2   1  UNL1       -0.5433
@<TRIPOS>UNITY_ATOM_ATTR
22 1
charge -1
@<TRIPOS>BOND
     1    15    16    1
     2    16    17    2
     3    17    18    1
     4    18    19    2
     5    19    21    1
     6    21    22   ar
     7    21    23   ar
     8    19    20    1
     9    20    14    1
    10    14     1    1
    11     1     2   ar
    12     2     3   ar
    13     3     4   ar
    14     4     5   ar
    15     5     7    1
    16     7     8   ar
    17     8     9   ar
    18     9    10   ar
    19    10    11    1
    20    10    12   ar
    21    12    13   ar
    22     5     6   ar
    23    20    16    1
    24     6     1   ar
    25    13     7   ar
@<TRIPOS>MOLECULE
*****
 23 25 0 0 0
SMALL
GASTEIGER

@<TRIPOS>ATOM
      1 C          63.2912   84.7730    9.8871 C.ar    1  UNL1       -0.0214
      2 C          63.7157   83.3615    9.6091 C.ar    1  UNL1       -0.0042
      3 C          64.0183   82.4316   10.7465 C.ar    1  UNL1       -0.0003
      4 C          63.8963   82.9132   12.1619 C.ar    1  UNL1       -0.0000
      5 C          63.4718   84.3248   12.4398 C.ar    1  UNL1       -0.0003
      6 C          63.1693   85.2547   11.3024 C.ar    1  UNL1       -0.0042
      7 C          63.3499   84.8064   13.8551 C.ar    1  UNL1        0.0001
      8 C          64.2076   85.9379   14.3388 C.ar    1  UNL1        0.0023
      9 C          64.0857   86.4195   15.7542 C.ar    1  UNL1        0.0296
     10 C          63.1060   85.7697   16.6858 C.ar    1  UNL1        0.1401
     11 F          62.9841   86.2514   18.1011 F       1  UNL1       -0.2042
     12 C          62.2483   84.6383   16.2021 C.ar    1  UNL1        0.0296
     13 C          62.3702   84.1566   14.7867 C.ar    1  UNL1        0.0023
     14 C          62.9886   85.7030    8.7497 C.3     1  UNL1        0.0380
     15 C          61.2413   84.4136    6.3137 C.3     1  UNL1        0.0496
     16 C          60.7626   85.4444    7.2926 C.2     1  UNL1        0.0643
     17 N          59.3967   86.0636    7.3236 N.2     1  UNL1       -0.1566
     18 N          59.3557   87.0389    8.4625 N.2     1  UNL1       -0.1515
     19 C          60.6963   87.0225    9.1353 C.2     1  UNL1        0.0996
     20 C          61.5658   86.0371    8.4123 C.3     1  UNL1        0.0853
     21 C          61.0969   87.8469   10.3227 C.2     1  UNL1        0.0885
     22 O          60.3005   87.7709   11.5916 O.co2   1  UNL1       -0.5433
     23 O          62.2939   88.7473   10.2413 O.co2   1  UNL1       -0.5433
@<TRIPOS>UNITY_ATOM_ATTR
22 1
charge -1
@<TRIPOS>BOND
     1    15    16    1
     2    16    17    2
     3    17    18    1
     4    18    19    2
     5    19    21    1
     6    21    22   ar
     7    21    23   ar
     8    19    20    1
     9    20    14    1
    10    14     1    1
    11     1     2   ar
    12     2     3   ar
    13     3     4   ar
    14     4     5   ar
    15     5     7    1
    16     7     8   ar
    17     8     9   ar
    18     9    10   ar
    19    10    11    1
    20    10    12   ar
    21    12    13   ar
    22     5     6   ar
    23    20    16    1
    24     6     1   ar
    25    13     7   ar
@<TRIPOS>MOLECULE
*****
 23 25 0 0 0
SMALL
GASTEIGER

@<TRIPOS>ATOM
      1 C          62.8338   89.0132   12.4532 C.ar    1  UNL1       -0.0214
      2 C          61.8185   90.1155   12.5178 C.ar    1  UNL1       -0.0042
      3 C          60.7258   90.1896   11.4929 C.ar    1  UNL1       -0.0003
      4 C          60.6484   89.1614   10.4034 C.ar    1  UNL1       -0.0000
      5 C          61.6637   88.0592   10.3389 C.ar    1  UNL1       -0.0003
      6 C          62.7564   87.9851   11.3638 C.ar    1  UNL1       -0.0042
      7 C          61.5862   87.0310    9.2494 C.ar    1  UNL1        0.0001
      8 C          62.7820   86.1828    8.9324 C.ar    1  UNL1        0.0023
      9 C          62.7045   85.1546    7.8429 C.ar    1  UNL1        0.0296
     10 C          61.4313   84.9747    7.0705 C.ar    1  UNL1        0.1401
     11 F          61.3539   83.9466    5.9811 F       1  UNL1       -0.2042
     12 C          60.2356   85.8230    7.3876 C.ar    1  UNL1        0.0296
     13 C          60.3130   86.8512    8.4771 C.ar    1  UNL1        0.0023
     14 C          63.9266   88.9391   13.4782 C.3     1  UNL1        0.0380
     15 C          62.6896   88.8308   16.4961 C.3     1  UNL1        0.0496
     16 C          63.4822   89.9604   15.9081 C.2     1  UNL1        0.0643
     17 N          63.8454   91.2386   16.6040 N.2     1  UNL1       -0.1566
     18 N          64.6385   92.0783   15.6469 N.2     1  UNL1       -0.1515
     19 C          64.7655   91.3191   14.3595 C.2     1  UNL1        0.0996
     20 C          64.0508   90.0102   14.5209 C.3     1  UNL1        0.0853
     21 C          65.4813   91.7867   13.1271 C.2     1  UNL1        0.0885
     22 O          66.9518   92.0784   13.1792 O.co2   1  UNL1       -0.5433
     23 O          64.7269   91.9626   11.8426 O.co2   1  UNL1       -0.5433
@<TRIPOS>UNITY_ATOM_ATTR
22 1
charge -1
@<TRIPOS>BOND
     1    15    16    1
     2    16    17    2
     3    17    18    1
     4    18    19    2
     5    19    21    1
     6    21    22   ar
     7    21    23   ar
     8    19    20    1
     9    20    14    1
    10    14     1    1
    11     1     2   ar
    12     2     3   ar
    13     3     4   ar
    14     4     5   ar
    15     5     7    1
    16     7     8   ar
    17     8     9   ar
    18     9    10   ar
    19    10    11    1
    20    10    12   ar
    21    12    13   ar
    22     5     6   ar
    23    20    16    1
    24     6     1   ar
    25    13     7   ar
@<TRIPOS>MOLECULE
*****
 23 25 0 0 0
SMALL
GASTEIGER

@<TRIPOS>ATOM
      1 C          62.8808   89.1121   12.4107 C.ar    1  UNL1       -0.0214
      2 C          61.8963   90.2432   12.4462 C.ar    1  UNL1       -0.0042
      3 C          60.8120   90.3263   11.4132 C.ar    1  UNL1       -0.0003
      4 C          60.7121   89.2783   10.3447 C.ar    1  UNL1       -0.0000
      5 C          61.6966   88.1472   10.3092 C.ar    1  UNL1       -0.0003
      6 C          62.7809   88.0641   11.3422 C.ar    1  UNL1       -0.0042
      7 C          61.5967   87.0992    9.2407 C.ar    1  UNL1        0.0001
      8 C          60.3159   86.9233    8.4800 C.ar    1  UNL1        0.0023
      9 C          60.2160   85.8753    7.4115 C.ar    1  UNL1        0.0296
     10 C          61.3969   85.0032    7.1037 C.ar    1  UNL1        0.1401
     11 F          61.2970   83.9552    6.0352 F       1  UNL1       -0.2042
     12 C          62.6777   85.1790    7.8643 C.ar    1  UNL1        0.0296
     13 C          62.7776   86.2270    8.9328 C.ar    1  UNL1        0.0023
     14 C          63.9653   89.0290   13.4437 C.3     1  UNL1        0.0380
     15 C          65.8016   91.6882   12.9899 C.3     1  UNL1        0.0496
     16 C          64.9982   91.3703   14.2160 C.2     1  UNL1        0.0643
     17 N          64.8978   92.2189   15.4488 N.2     1  UNL1       -0.1566
     18 N          63.9916   91.5210   16.4193 N.2     1  UNL1       -0.1515
     19 C          63.5321   90.2411   15.7863 C.2     1  UNL1        0.0996
     20 C          64.1541   90.1479   14.4246 C.3     1  UNL1        0.0853
     21 C          62.6119   89.2316   16.4063 C.2     1  UNL1        0.0885
     22 O          61.1466   89.2567   16.0868 O.co2   1  UNL1       -0.5433
     23 O          63.1571   88.1971   17.3457 O.co2   1  UNL1       -0.5433
@<TRIPOS>UNITY_ATOM_ATTR
22 1
charge -1
@<TRIPOS>BOND
     1    15    16    1
     2    16    17    2
     3    17    18    1
     4    18    19    2
     5    19    21    1
     6    21    22   ar
     7    21    23   ar
     8    19    20    1
     9    20    14    1
    10    14     1    1
    11     1     2   ar
    12     2     3   ar
    13     3     4   ar
    14     4     5   ar
    15     5     7    1
    16     7     8   ar
    17     8     9   ar
    18     9    10   ar
    19    10    11    1
    20    10    12   ar
    21    12    13   ar
    22     5     6   ar
    23    20    16    1
    24     6     1   ar
    25    13     7   ar
@<TRIPOS>MOLECULE
*****
 23 25 0 0 0
SMALL
GASTEIGER

@<TRIPOS>ATOM
      1 C          62.1146   88.1175   11.1819 C.ar    1  UNL1       -0.0214
      2 C          61.9850   88.1107    9.6875 C.ar    1  UNL1       -0.0042
      3 C          62.1560   86.8300    8.9257 C.ar    1  UNL1       -0.0003
      4 C          62.4565   85.5560    9.6582 C.ar    1  UNL1       -0.0000
      5 C          62.5861   85.5627   11.1526 C.ar    1  UNL1       -0.0003
      6 C          62.4151   86.8435   11.9144 C.ar    1  UNL1       -0.0042
      7 C          62.8866   84.2887   11.8851 C.ar    1  UNL1        0.0001
      8 C          62.7924   84.2438   13.3814 C.ar    1  UNL1        0.0023
      9 C          63.0929   82.9698   14.1140 C.ar    1  UNL1        0.0296
     10 C          63.4877   81.7407   13.3502 C.ar    1  UNL1        0.1401
     11 F          63.7882   80.4667   14.0827 F       1  UNL1       -0.2042
     12 C          63.5819   81.7856   11.8538 C.ar    1  UNL1        0.0296
     13 C          63.2814   83.0596   11.1213 C.ar    1  UNL1        0.0023
     14 C          61.9437   89.3983   11.9438 C.3     1  UNL1        0.0380
     15 C          63.4212   91.6259   10.0719 C.3     1  UNL1        0.0496
     16 C          63.8248   91.2353   11.4627 C.2     1  UNL1        0.0643
     17 N          64.9785   91.8002   12.2374 N.2     1  UNL1       -0.1566
     18 N          65.0123   91.1253   13.5766 N.2     1  UNL1       -0.1515
     19 C          63.8796   90.1434   13.6296 C.2     1  UNL1        0.0996
     20 C          63.1457   90.2114   12.3232 C.3     1  UNL1        0.0853
     21 C          63.5403   89.2503   14.7860 C.2     1  UNL1        0.0885
     22 O          62.5876   89.7225   15.8440 O.co2   1  UNL1       -0.5433
     23 O          64.1538   87.8850   14.8845 O.co2   1  UNL1       -0.5433
@<TRIPOS>UNITY_ATOM_ATTR
22 1
charge -1
@<TRIPOS>BOND
     1    15    16    1
     2    16    17    2
     3    17    18    1
     4    18    19    2
     5    19    21    1
     6    21    22   ar
     7    21    23   ar
     8    19    20    1
     9    20    14    1
    10    14     1    1
    11     1     2   ar
    12     2     3   ar
    13     3     4   ar
    14     4     5   ar
    15     5     7    1
    16     7     8   ar
    17     8     9   ar
    18     9    10   ar
    19    10    11    1
    20    10    12   ar
    21    12    13   ar
    22     5     6   ar
    23    20    16    1
    24     6     1   ar
    25    13     7   ar
@<TRIPOS>MOLECULE
*****
 23 25 0 0 0
SMALL
GASTEIGER

@<TRIPOS>ATOM
      1 C          64.1102   88.1042   13.7885 C.ar    1  UNL1       -0.0214
      2 C          64.3940   89.5642   13.9827 C.ar    1  UNL1       -0.0042
      3 C          63.8047   90.5742   13.0433 C.ar    1  UNL1       -0.0003
      4 C          62.9317   90.1242   11.9095 C.ar    1  UNL1       -0.0000
      5 C          62.6480   88.6641   11.7153 C.ar    1  UNL1       -0.0003
      6 C          63.2372   87.6542   12.6548 C.ar    1  UNL1       -0.0042
      7 C          61.7750   88.2141   10.5815 C.ar    1  UNL1        0.0001
      8 C          61.6458   86.7528   10.2688 C.ar    1  UNL1        0.0023
      9 C          60.7729   86.3027    9.1350 C.ar    1  UNL1        0.0296
     10 C          60.0290   87.3140    8.3141 C.ar    1  UNL1        0.1401
     11 F          59.1560   86.8639    7.1803 F       1  UNL1       -0.2042
     12 C          60.1582   88.7753    8.6269 C.ar    1  UNL1        0.0296
     13 C          61.0312   89.2253    9.7606 C.ar    1  UNL1        0.0023
     14 C          64.6995   87.0941   14.7280 C.3     1  UNL1        0.0380
     15 C          64.4791   84.1600   13.3167 C.3     1  UNL1        0.0496
     16 C          63.7655   84.5951   14.5623 C.2     1  UNL1        0.0643
     17 N          62.8253   83.7579   15.3778 N.2     1  UNL1       -0.1566
     18 N          62.3456   84.5892   16.5306 N.2     1  UNL1       -0.1515
     19 C          62.9893   85.9401   16.4275 C.2     1  UNL1        0.0996
     20 C          63.8668   85.9438   15.2110 C.3     1  UNL1        0.0853
     21 C          62.7903   87.0862   17.3745 C.2     1  UNL1        0.0885
     22 O          62.7408   86.8374   18.8529 O.co2   1  UNL1       -0.5433
     23 O          62.6408   88.4810   16.8433 O.co2   1  UNL1       -0.5433
@<TRIPOS>UNITY_ATOM_ATTR
22 1
charge -1
@<TRIPOS>BOND
     1    15    16    1
     2    16    17    2
     3    17    18    1
     4    18    19    2
     5    19    21    1
     6    21    22   ar
     7    21    23   ar
     8    19    20    1
     9    20    14    1
    10    14     1    1
    11     1     2   ar
    12     2     3   ar
    13     3     4   ar
    14     4     5   ar
    15     5     7    1
    16     7     8   ar
    17     8     9   ar
    18     9    10   ar
    19    10    11    1
    20    10    12   ar
    21    12    13   ar
    22     5     6   ar
    23    20    16    1
    24     6     1   ar
    25    13     7   ar
