@<TRIPOS>MOLECULE
*****
 31 33 0 0 0
SMALL
GASTEIGER

@<TRIPOS>ATOM
      1 C          60.7979   87.9794    9.0845 C.ar    1  UNL1        0.1724
      2 C          60.8814   86.5358    8.6858 C.ar    1  UNL1        0.0402
      3 C          61.5238   85.5397    9.6052 C.ar    1  UNL1        0.0078
      4 C          62.0826   85.9873   10.9233 C.ar    1  UNL1        0.0566
      5 C          61.9991   87.4309   11.3220 C.ar    1  UNL1        0.0445
      6 C          61.3567   88.4269   10.4025 C.ar    1  UNL1        0.1722
      7 C          62.7249   84.9913   11.8427 C.2     1  UNL1        0.2459
      8 O          63.8312   84.1116   11.3405 O.2     1  UNL1       -0.2701
      9 N          62.2610   84.8749   13.2644 N.am    1  UNL1       -0.3021
     10 H          61.5349   85.4523   13.5941 H       1  UNL1        0.1497
     11 C          62.9033   83.8789   14.1838 C.3     1  UNL1        0.0778
     12 C          62.7581   82.4098   13.9174 C.3     1  UNL1        0.0217
     13 C          63.6908   84.3518   15.3696 C.3     1  UNL1        0.0653
     14 C          63.5356   85.7611   15.8593 C.ar    1  UNL1        0.0607
     15 C          62.9324   86.0246   17.2071 C.ar    1  UNL1        0.0148
     16 C          62.7773   87.4339   17.6969 C.ar    1  UNL1        0.0028
     17 C          63.2253   88.5797   16.8387 C.ar    1  UNL1        0.0207
     18 C          63.8284   88.3162   15.4909 C.ar    1  UNL1        0.0984
     19 N          63.9836   86.9069   15.0012 N.ar    1  UNL1       -0.2481
     20 C          59.0783   88.5362    7.2183 C.3     1  UNL1        0.2526
     21 O          60.1556   88.9754    8.1650 O.3     1  UNL1       -0.4684
     22 O          61.2732   89.8706   10.8012 O.3     1  UNL1       -0.4760
     23 C          62.5078   90.5995   11.2422 C.3     1  UNL1        0.1688
     24 C          62.9579   90.5165   12.6707 C.3     1  UNL1        0.0609
     25 C          64.1924   91.2454   13.1117 C.3     1  UNL1        0.0758
     26 N          64.9770   92.0573   12.1242 N.3     1  UNL1       -0.2737
     27 C          64.5270   92.1404   10.6958 C.3     1  UNL1        0.0758
     28 C          63.2924   91.4115   10.2547 C.3     1  UNL1        0.0609
     29 C          66.2116   92.7862   12.5652 C.3     1  UNL1        0.0576
     30 C          66.3601   94.2512   12.2790 C.3     1  UNL1        0.0173
     31 C          67.2976   92.0502   13.2924 C.3     1  UNL1        0.0173
@<TRIPOS>BOND
     1    20    21    1
     2    21     1    1
     3     1     2   ar
     4     2     3   ar
     5     3     4   ar
     6     4     7    1
     7     7     8    2
     8     7     9   am
     9     9    11    1
    10    11    12    1
    11    11    13    1
    12    13    14    1
    13    14    15   ar
    14    15    16   ar
    15    16    17   ar
    16    17    18   ar
    17    18    19   ar
    18     4     5   ar
    19     5     6   ar
    20     6    22    1
    21    22    23    1
    22    23    24    1
    23    24    25    1
    24    25    26    1
    25    26    29    1
    26    29    30    1
    27    29    31    1
    28    26    27    1
    29    27    28    1
    30     6     1   ar
    31    28    23    1
    32    19    14   ar
    33     9    10    1
@<TRIPOS>MOLECULE
*****
 31 33 0 0 0
SMALL
GASTEIGER

@<TRIPOS>ATOM
      1 C          61.0006   87.7199    9.2540 C.ar    1  UNL1        0.1724
      2 C          61.1878   86.4973    8.4055 C.ar    1  UNL1        0.0402
      3 C          61.8691   85.2874    8.9732 C.ar    1  UNL1        0.0078
      4 C          62.3631   85.3003   10.3895 C.ar    1  UNL1        0.0566
      5 C          62.1758   86.5229   11.2380 C.ar    1  UNL1        0.0445
      6 C          61.4946   87.7327   10.6703 C.ar    1  UNL1        0.1722
      7 C          63.0443   84.0905   10.9572 C.2     1  UNL1        0.2459
      8 O          64.4522   83.7647   10.5552 O.2     1  UNL1       -0.2701
      9 N          62.3176   83.2064   11.9268 N.am    1  UNL1       -0.3021
     10 H          61.3935   83.4202   12.1906 H       1  UNL1        0.1497
     11 C          62.9988   81.9966   12.4945 C.3     1  UNL1        0.0778
     12 C          62.9336   80.6876   11.7649 C.3     1  UNL1        0.0217
     13 C          63.7452   82.0958   13.7918 C.3     1  UNL1        0.0653
     14 C          63.7706   83.3925   14.5453 C.ar    1  UNL1        0.0607
     15 C          64.8701   84.3824   14.2978 C.ar    1  UNL1        0.0148
     16 C          64.8954   85.6791   15.0513 C.ar    1  UNL1        0.0028
     17 C          63.8213   85.9861   16.0523 C.ar    1  UNL1        0.0207
     18 C          62.7218   84.9962   16.2998 C.ar    1  UNL1        0.0984
     19 N          62.6965   83.6994   15.5463 N.ar    1  UNL1       -0.2481
     20 C          59.4766   88.8057    7.4517 C.3     1  UNL1        0.2526
     21 O          60.3194   88.9297    8.6863 O.3     1  UNL1       -0.4684
     22 O          61.3074   88.9554   11.5189 O.3     1  UNL1       -0.4760
     23 C          62.4458   89.9116   11.7182 C.3     1  UNL1        0.1688
     24 C          62.8909   90.7936   10.5894 C.3     1  UNL1        0.0609
     25 C          64.0293   91.7497   10.7887 C.3     1  UNL1        0.0758
     26 N          64.7228   91.8239   12.1167 N.3     1  UNL1       -0.2737
     27 C          64.2778   90.9419   13.2454 C.3     1  UNL1        0.0758
     28 C          63.1393   89.9857   13.0462 C.3     1  UNL1        0.0609
     29 C          65.8612   92.7800   12.3160 C.3     1  UNL1        0.0576
     30 C          66.8901   92.5111   13.3740 C.3     1  UNL1        0.0173
     31 C          65.9709   94.0050   11.4574 C.3     1  UNL1        0.0173
@<TRIPOS>BOND
     1    20    21    1
     2    21     1    1
     3     1     2   ar
     4     2     3   ar
     5     3     4   ar
     6     4     7    1
     7     7     8    2
     8     7     9   am
     9     9    11    1
    10    11    12    1
    11    11    13    1
    12    13    14    1
    13    14    15   ar
    14    15    16   ar
    15    16    17   ar
    16    17    18   ar
    17    18    19   ar
    18     4     5   ar
    19     5     6   ar
    20     6    22    1
    21    22    23    1
    22    23    24    1
    23    24    25    1
    24    25    26    1
    25    26    29    1
    26    29    30    1
    27    29    31    1
    28    26    27    1
    29    27    28    1
    30     6     1   ar
    31    28    23    1
    32    19    14   ar
    33     9    10    1
@<TRIPOS>MOLECULE
*****
 31 33 0 0 0
SMALL
GASTEIGER

@<TRIPOS>ATOM
      1 C          60.7589   88.4118    9.2534 C.ar    1  UNL1        0.1724
      2 C          60.5889   86.9335    9.0644 C.ar    1  UNL1        0.0402
      3 C          61.2867   85.9747    9.9830 C.ar    1  UNL1        0.0078
      4 C          62.1545   86.4942   11.0906 C.ar    1  UNL1        0.0566
      5 C          62.3245   87.9725   11.2797 C.ar    1  UNL1        0.0445
      6 C          61.6267   88.9313   10.3611 C.ar    1  UNL1        0.1722
      7 C          62.8523   85.5355   12.0093 C.2     1  UNL1        0.2459
      8 O          63.1922   84.1540   11.5339 O.2     1  UNL1       -0.2701
      9 N          63.2101   85.9581   13.4032 N.am    1  UNL1       -0.3021
     10 H          62.9870   86.8648   13.7153 H       1  UNL1        0.1497
     11 C          63.9079   84.9994   14.3219 C.3     1  UNL1        0.0778
     12 C          65.4030   85.0278   14.4405 C.3     1  UNL1        0.0217
     13 C          63.1107   84.0122   15.1218 C.3     1  UNL1        0.0653
     14 C          62.7666   82.6752   14.5353 C.ar    1  UNL1        0.0607
     15 C          63.8184   81.8736   13.8275 C.ar    1  UNL1        0.0148
     16 C          63.4743   80.5365   13.2410 C.ar    1  UNL1        0.0028
     17 C          62.0784   80.0011   13.3624 C.ar    1  UNL1        0.0207
     18 C          61.0266   80.8028   14.0702 C.ar    1  UNL1        0.0984
     19 N          61.3707   82.1398   14.6567 N.ar    1  UNL1       -0.2481
     20 C          59.3183   88.8561    7.1375 C.3     1  UNL1        0.2526
     21 O          60.0611   89.3705    8.3348 O.3     1  UNL1       -0.4684
     22 O          61.7968   90.4096   10.5502 O.3     1  UNL1       -0.4760
     23 C          63.0124   90.9413   11.2498 C.3     1  UNL1        0.1688
     24 C          63.2162   90.6687   12.7108 C.3     1  UNL1        0.0609
     25 C          64.4319   91.2004   13.4104 C.3     1  UNL1        0.0758
     26 N          65.4437   92.0046   12.6492 N.3     1  UNL1       -0.2737
     27 C          65.2399   92.2772   11.1883 C.3     1  UNL1        0.0758
     28 C          64.0242   91.7455   10.4886 C.3     1  UNL1        0.0609
     29 C          66.6593   92.5363   13.3488 C.3     1  UNL1        0.0576
     30 C          66.5596   93.7754   14.1884 C.3     1  UNL1        0.0173
     31 C          67.9746   91.8290   13.2089 C.3     1  UNL1        0.0173
@<TRIPOS>BOND
     1    20    21    1
     2    21     1    1
     3     1     2   ar
     4     2     3   ar
     5     3     4   ar
     6     4     7    1
     7     7     8    2
     8     7     9   am
     9     9    11    1
    10    11    12    1
    11    11    13    1
    12    13    14    1
    13    14    15   ar
    14    15    16   ar
    15    16    17   ar
    16    17    18   ar
    17    18    19   ar
    18     4     5   ar
    19     5     6   ar
    20     6    22    1
    21    22    23    1
    22    23    24    1
    23    24    25    1
    24    25    26    1
    25    26    29    1
    26    29    30    1
    27    29    31    1
    28    26    27    1
    29    27    28    1
    30     6     1   ar
    31    28    23    1
    32    19    14   ar
    33     9    10    1
@<TRIPOS>MOLECULE
*****
 31 33 0 0 0
SMALL
GASTEIGER

@<TRIPOS>ATOM
      1 C          60.5107   88.8124    9.6448 C.ar    1  UNL1        0.1724
      2 C          60.1154   90.0680   10.3638 C.ar    1  UNL1        0.0402
      3 C          61.0529   90.6915   11.3550 C.ar    1  UNL1        0.0078
      4 C          62.3857   90.0594   11.6271 C.ar    1  UNL1        0.0566
      5 C          62.7809   88.8037   10.9080 C.ar    1  UNL1        0.0445
      6 C          61.8434   88.1802    9.9169 C.ar    1  UNL1        0.1722
      7 C          63.3232   90.6829   12.6182 C.2     1  UNL1        0.2459
      8 O          63.0301   90.5938   14.0865 O.2     1  UNL1       -0.2701
      9 N          64.5538   91.3955   12.1409 N.am    1  UNL1       -0.3021
     10 H          64.7461   91.4540   11.1772 H       1  UNL1        0.1497
     11 C          65.4913   92.0191   13.1320 C.3     1  UNL1        0.0778
     12 C          65.9266   91.2461   14.3416 C.3     1  UNL1        0.0217
     13 C          65.9934   93.4155   12.9136 C.3     1  UNL1        0.0653
     14 C          66.5672   93.8069   11.5841 C.ar    1  UNL1        0.0607
     15 C          66.3988   95.2088   11.0779 C.ar    1  UNL1        0.0148
     16 C          66.9726   95.6001    9.7484 C.ar    1  UNL1        0.0028
     17 C          67.7148   94.5895    8.9251 C.ar    1  UNL1        0.0207
     18 C          67.8832   93.1876    9.4313 C.ar    1  UNL1        0.0984
     19 N          67.3094   92.7963   10.7608 N.ar    1  UNL1       -0.2481
     20 C          59.4116   88.7939    7.2908 C.3     1  UNL1        0.2526
     21 O          59.5732   88.1888    8.6537 O.3     1  UNL1       -0.4684
     22 O          62.2388   86.9245    9.1979 O.3     1  UNL1       -0.4760
     23 C          62.5455   85.6795    9.9762 C.3     1  UNL1        0.1688
     24 C          63.3812   84.5967    9.3603 C.3     1  UNL1        0.0609
     25 C          63.6880   83.3517   10.1386 C.3     1  UNL1        0.0758
     26 N          63.1590   83.1893   11.5328 N.3     1  UNL1       -0.2737
     27 C          62.3232   84.2720   12.1487 C.3     1  UNL1        0.0758
     28 C          62.0165   85.5171   11.3704 C.3     1  UNL1        0.0609
     29 C          63.4657   81.9443   12.3111 C.3     1  UNL1        0.0576
     30 C          64.7273   81.8558   13.1178 C.3     1  UNL1        0.0173
     31 C          62.5108   80.7878   12.2829 C.3     1  UNL1        0.0173
@<TRIPOS>BOND
     1    20    21    1
     2    21     1    1
     3     1     2   ar
     4     2     3   ar
     5     3     4   ar
     6     4     7    1
     7     7     8    2
     8     7     9   am
     9     9    11    1
    10    11    12    1
    11    11    13    1
    12    13    14    1
    13    14    15   ar
    14    15    16   ar
    15    16    17   ar
    16    17    18   ar
    17    18    19   ar
    18     4     5   ar
    19     5     6   ar
    20     6    22    1
    21    22    23    1
    22    23    24    1
    23    24    25    1
    24    25    26    1
    25    26    29    1
    26    29    30    1
    27    29    31    1
    28    26    27    1
    29    27    28    1
    30     6     1   ar
    31    28    23    1
    32    19    14   ar
    33     9    10    1
@<TRIPOS>MOLECULE
*****
 31 33 0 0 0
SMALL
GASTEIGER

@<TRIPOS>ATOM
      1 C          60.4878   88.5911    9.7082 C.ar    1  UNL1        0.1724
      2 C          60.1062   89.9115   10.3090 C.ar    1  UNL1        0.0402
      3 C          61.1571   90.7874   10.9241 C.ar    1  UNL1        0.0078
      4 C          62.5896   90.3428   10.9386 C.ar    1  UNL1        0.0566
      5 C          62.9712   89.0225   10.3379 C.ar    1  UNL1        0.0445
      6 C          61.9203   88.1466    9.7227 C.ar    1  UNL1        0.1722
      7 C          63.6405   91.2187   11.5538 C.2     1  UNL1        0.2459
      8 O          63.6385   91.4665   13.0332 O.2     1  UNL1       -0.2701
      9 N          64.6934   91.8468   10.6896 N.am    1  UNL1       -0.3021
     10 H          64.6947   91.6842    9.7187 H       1  UNL1        0.1497
     11 C          65.7443   92.7227   11.3048 C.3     1  UNL1        0.0778
     12 C          65.5753   94.2132   11.3000 C.3     1  UNL1        0.0217
     13 C          66.9641   92.1082   11.9248 C.3     1  UNL1        0.0653
     14 C          67.2397   92.2994   13.3868 C.ar    1  UNL1        0.0607
     15 C          66.1013   92.3825   14.3600 C.ar    1  UNL1        0.0148
     16 C          66.3769   92.5738   15.8220 C.ar    1  UNL1        0.0028
     17 C          67.7909   92.6820   16.3108 C.ar    1  UNL1        0.0207
     18 C          68.9292   92.5990   15.3376 C.ar    1  UNL1        0.0984
     19 N          68.6536   92.4077   13.8756 N.ar    1  UNL1       -0.2481
     20 C          59.1222   87.8350    7.6314 C.3     1  UNL1        0.2526
     21 O          59.4369   87.7152    9.0930 O.3     1  UNL1       -0.4684
     22 O          62.3020   86.8261    9.1220 O.3     1  UNL1       -0.4760
     23 C          62.5538   85.6432   10.0092 C.3     1  UNL1        0.1688
     24 C          63.3862   84.4978    9.5140 C.3     1  UNL1        0.0609
     25 C          63.6380   83.3149   10.4013 C.3     1  UNL1        0.0758
     26 N          63.0574   83.2774   11.7838 N.3     1  UNL1       -0.2737
     27 C          62.2250   84.4227   12.2791 C.3     1  UNL1        0.0758
     28 C          61.9732   85.6057   11.3918 C.3     1  UNL1        0.0609
     29 C          63.3092   82.0945   12.6711 C.3     1  UNL1        0.0576
     30 C          64.1551   82.2457   13.9006 C.3     1  UNL1        0.0173
     31 C          62.7150   80.7603   12.3290 C.3     1  UNL1        0.0173
@<TRIPOS>BOND
     1    20    21    1
     2    21     1    1
     3     1     2   ar
     4     2     3   ar
     5     3     4   ar
     6     4     7    1
     7     7     8    2
     8     7     9   am
     9     9    11    1
    10    11    12    1
    11    11    13    1
    12    13    14    1
    13    14    15   ar
    14    15    16   ar
    15    16    17   ar
    16    17    18   ar
    17    18    19   ar
    18     4     5   ar
    19     5     6   ar
    20     6    22    1
    21    22    23    1
    22    23    24    1
    23    24    25    1
    24    25    26    1
    25    26    29    1
    26    29    30    1
    27    29    31    1
    28    26    27    1
    29    27    28    1
    30     6     1   ar
    31    28    23    1
    32    19    14   ar
    33     9    10    1
@<TRIPOS>MOLECULE
*****
 31 33 0 0 0
SMALL
GASTEIGER

@<TRIPOS>ATOM
      1 C          60.8764   89.0402    9.3350 C.ar    1  UNL1        0.1724
      2 C          60.5965   90.3203   10.0649 C.ar    1  UNL1        0.0402
      3 C          61.3552   90.6518   11.3157 C.ar    1  UNL1        0.0078
      4 C          62.3938   89.7032   11.8366 C.ar    1  UNL1        0.0566
      5 C          62.6737   88.4230   11.1066 C.ar    1  UNL1        0.0445
      6 C          61.9150   88.0915    9.8559 C.ar    1  UNL1        0.1722
      7 C          63.1526   90.0347   13.0873 C.2     1  UNL1        0.2459
      8 O          64.5657   90.5298   12.9983 O.2     1  UNL1       -0.2701
      9 N          62.4982   89.8711   14.4271 N.am    1  UNL1       -0.3021
     10 H          61.5707   89.5461   14.4855 H       1  UNL1        0.1497
     11 C          63.2569   90.2026   15.6779 C.3     1  UNL1        0.0778
     12 C          63.9231   91.5392   15.8189 C.3     1  UNL1        0.0217
     13 C          63.3495   89.1976   16.7875 C.3     1  UNL1        0.0653
     14 C          63.3330   87.7308   16.4743 C.ar    1  UNL1        0.0607
     15 C          62.6130   86.7781   17.3820 C.ar    1  UNL1        0.0148
     16 C          62.5966   85.3113   17.0687 C.ar    1  UNL1        0.0028
     17 C          63.3000   84.7971   15.8478 C.ar    1  UNL1        0.0207
     18 C          64.0200   85.7498   14.9401 C.ar    1  UNL1        0.0984
     19 N          64.0365   87.2167   15.2533 N.ar    1  UNL1       -0.2481
     20 C          59.0660   87.6393    8.1062 C.3     1  UNL1        0.2526
     21 O          60.1177   88.7086    8.0842 O.3     1  UNL1       -0.4684
     22 O          62.1950   86.8113    9.1259 O.3     1  UNL1       -0.4760
     23 C          62.5280   85.5671    9.8946 C.3     1  UNL1        0.1688
     24 C          61.9861   85.3737   11.2800 C.3     1  UNL1        0.0609
     25 C          62.3191   84.1295   12.0487 C.3     1  UNL1        0.0758
     26 N          63.1939   83.0785   11.4321 N.3     1  UNL1       -0.2737
     27 C          63.7358   83.2718   10.0468 C.3     1  UNL1        0.0758
     28 C          63.4028   84.5161    9.2780 C.3     1  UNL1        0.0609
     29 C          63.5269   81.8343   12.2008 C.3     1  UNL1        0.0576
     30 C          62.7778   80.5630   11.9311 C.3     1  UNL1        0.0173
     31 C          64.6090   81.8613   13.2392 C.3     1  UNL1        0.0173
@<TRIPOS>BOND
     1    20    21    1
     2    21     1    1
     3     1     2   ar
     4     2     3   ar
     5     3     4   ar
     6     4     7    1
     7     7     8    2
     8     7     9   am
     9     9    11    1
    10    11    12    1
    11    11    13    1
    12    13    14    1
    13    14    15   ar
    14    15    16   ar
    15    16    17   ar
    16    17    18   ar
    17    18    19   ar
    18     4     5   ar
    19     5     6   ar
    20     6    22    1
    21    22    23    1
    22    23    24    1
    23    24    25    1
    24    25    26    1
    25    26    29    1
    26    29    30    1
    27    29    31    1
    28    26    27    1
    29    27    28    1
    30     6     1   ar
    31    28    23    1
    32    19    14   ar
    33     9    10    1
@<TRIPOS>MOLECULE
*****
 31 33 0 0 0
SMALL
GASTEIGER

@<TRIPOS>ATOM
      1 C          63.9445   82.8086   13.5038 C.ar    1  UNL1        0.1724
      2 C          64.0636   82.9146   14.9953 C.ar    1  UNL1        0.0402
      3 C          64.0023   84.2583   15.6590 C.ar    1  UNL1        0.0078
      4 C          63.8219   85.4961   14.8313 C.ar    1  UNL1        0.0566
      5 C          63.7028   85.3902   13.3398 C.ar    1  UNL1        0.0445
      6 C          63.7641   84.0465   12.6761 C.ar    1  UNL1        0.1722
      7 C          63.7607   86.8399   15.4950 C.2     1  UNL1        0.2459
      8 O          63.4620   86.9391   16.9616 O.2     1  UNL1       -0.2701
      9 N          63.9982   88.0845   14.6922 N.am    1  UNL1       -0.3021
     10 H          64.1942   88.0194   13.7296 H       1  UNL1        0.1497
     11 C          63.9369   89.4283   15.3559 C.3     1  UNL1        0.0778
     12 C          63.1801   89.5967   16.6401 C.3     1  UNL1        0.0217
     13 C          64.6324   90.6036   14.7356 C.3     1  UNL1        0.0653
     14 C          64.3646   90.9638   13.3044 C.ar    1  UNL1        0.0607
     15 C          65.2364   91.9660   12.6075 C.ar    1  UNL1        0.0148
     16 C          64.9686   92.3262   11.1762 C.ar    1  UNL1        0.0028
     17 C          63.8290   91.6844   10.4419 C.ar    1  UNL1        0.0207
     18 C          62.9573   90.6822   11.1387 C.ar    1  UNL1        0.0984
     19 N          63.2251   90.3220   12.5700 N.ar    1  UNL1       -0.2481
     20 C          62.7970   80.5767   12.8316 C.3     1  UNL1        0.2526
     21 O          64.0057   81.4649   12.8401 O.3     1  UNL1       -0.4684
     22 O          63.6450   83.9406   11.1845 O.3     1  UNL1       -0.4760
     23 C          62.7396   84.8736   10.4363 C.3     1  UNL1        0.1688
     24 C          62.8728   85.0158    8.9490 C.3     1  UNL1        0.0609
     25 C          61.9675   85.9489    8.2008 C.3     1  UNL1        0.0758
     26 N          60.9290   86.7396    8.9398 N.3     1  UNL1       -0.2737
     27 C          60.7958   86.5974   10.4271 C.3     1  UNL1        0.0758
     28 C          61.7012   85.6644   11.1754 C.3     1  UNL1        0.0609
     29 C          60.0237   87.6726    8.1916 C.3     1  UNL1        0.0576
     30 C          60.1434   89.1546    8.3911 C.3     1  UNL1        0.0173
     31 C          58.9986   87.1238    7.2440 C.3     1  UNL1        0.0173
@<TRIPOS>BOND
     1    20    21    1
     2    21     1    1
     3     1     2   ar
     4     2     3   ar
     5     3     4   ar
     6     4     7    1
     7     7     8    2
     8     7     9   am
     9     9    11    1
    10    11    12    1
    11    11    13    1
    12    13    14    1
    13    14    15   ar
    14    15    16   ar
    15    16    17   ar
    16    17    18   ar
    17    18    19   ar
    18     4     5   ar
    19     5     6   ar
    20     6    22    1
    21    22    23    1
    22    23    24    1
    23    24    25    1
    24    25    26    1
    25    26    29    1
    26    29    30    1
    27    29    31    1
    28    26    27    1
    29    27    28    1
    30     6     1   ar
    31    28    23    1
    32    19    14   ar
    33     9    10    1
@<TRIPOS>MOLECULE
*****
 31 33 0 0 0
SMALL
GASTEIGER

@<TRIPOS>ATOM
      1 C          60.7032   87.5944    8.5005 C.ar    1  UNL1        0.1724
      2 C          60.2341   89.0086    8.6735 C.ar    1  UNL1        0.0402
      3 C          61.0212   89.9611    9.5239 C.ar    1  UNL1        0.0078
      4 C          62.2774   89.4995   10.2012 C.ar    1  UNL1        0.0566
      5 C          62.7465   88.0853   10.0281 C.ar    1  UNL1        0.0445
      6 C          61.9594   87.1327    9.1778 C.ar    1  UNL1        0.1722
      7 C          63.0646   90.4520   11.0515 C.2     1  UNL1        0.2459
      8 O          63.4522   91.7961   10.5101 O.2     1  UNL1       -0.2701
      9 N          63.4640   90.0605   12.4433 N.am    1  UNL1       -0.3021
     10 H          63.2096   89.1784   12.7987 H       1  UNL1        0.1497
     11 C          64.2512   91.0131   13.2936 C.3     1  UNL1        0.0778
     12 C          64.9468   92.1827   12.6625 C.3     1  UNL1        0.0217
     13 C          64.3427   90.7960   14.7750 C.3     1  UNL1        0.0653
     14 C          64.0250   89.4505   15.3570 C.ar    1  UNL1        0.0607
     15 C          63.2339   89.3507   16.6274 C.ar    1  UNL1        0.0148
     16 C          62.9162   88.0052   17.2094 C.ar    1  UNL1        0.0028
     17 C          63.3896   86.7595   16.5209 C.ar    1  UNL1        0.0207
     18 C          64.1806   86.8593   15.2504 C.ar    1  UNL1        0.0984
     19 N          64.4984   88.2048   14.6684 N.ar    1  UNL1       -0.2481
     20 C          58.4168   86.6644    7.6897 C.3     1  UNL1        0.2526
     21 O          59.9161   86.6418    7.6502 O.3     1  UNL1       -0.4684
     22 O          62.4285   85.7185    9.0048 O.3     1  UNL1       -0.4760
     23 C          62.7542   84.8839   10.2078 C.3     1  UNL1        0.1688
     24 C          63.6304   83.6745   10.0667 C.3     1  UNL1        0.0609
     25 C          63.9560   82.8398   11.2697 C.3     1  UNL1        0.0758
     26 N          63.4056   83.2145   12.6138 N.3     1  UNL1       -0.2737
     27 C          62.5295   84.4238   12.7550 C.3     1  UNL1        0.0758
     28 C          62.2038   85.2585   11.5519 C.3     1  UNL1        0.0609
     29 C          63.7313   82.3799   13.8169 C.3     1  UNL1        0.0576
     30 C          64.0295   83.0409   15.1299 C.3     1  UNL1        0.0173
     31 C          63.7587   80.8842   13.7069 C.3     1  UNL1        0.0173
@<TRIPOS>BOND
     1    20    21    1
     2    21     1    1
     3     1     2   ar
     4     2     3   ar
     5     3     4   ar
     6     4     7    1
     7     7     8    2
     8     7     9   am
     9     9    11    1
    10    11    12    1
    11    11    13    1
    12    13    14    1
    13    14    15   ar
    14    15    16   ar
    15    16    17   ar
    16    17    18   ar
    17    18    19   ar
    18     4     5   ar
    19     5     6   ar
    20     6    22    1
    21    22    23    1
    22    23    24    1
    23    24    25    1
    24    25    26    1
    25    26    29    1
    26    29    30    1
    27    29    31    1
    28    26    27    1
    29    27    28    1
    30     6     1   ar
    31    28    23    1
    32    19    14   ar
    33     9    10    1
@<TRIPOS>MOLECULE
*****
 31 33 0 0 0
SMALL
GASTEIGER

@<TRIPOS>ATOM
      1 C          61.5753   87.0446   10.0701 C.ar    1  UNL1        0.1724
      2 C          61.2478   86.4202    8.7462 C.ar    1  UNL1        0.0402
      3 C          60.4099   87.1674    7.7513 C.ar    1  UNL1        0.0078
      4 C          59.8996   88.5389    8.0803 C.ar    1  UNL1        0.0566
      5 C          60.2270   89.1633    9.4042 C.ar    1  UNL1        0.0445
      6 C          61.0649   88.4162   10.3991 C.ar    1  UNL1        0.1722
      7 C          59.0617   89.2860    7.0854 C.2     1  UNL1        0.2459
      8 O          57.6601   88.8362    6.7972 O.2     1  UNL1       -0.2701
      9 N          59.6254   90.4830    6.3788 N.am    1  UNL1       -0.3021
     10 H          60.5454   90.7783    6.5680 H       1  UNL1        0.1497
     11 C          58.7876   91.2301    5.3839 C.3     1  UNL1        0.0778
     12 C          57.3760   90.7982    5.1175 C.3     1  UNL1        0.0217
     13 C          59.3613   92.4092    4.6554 C.3     1  UNL1        0.0653
     14 C          60.5690   92.2366    3.7828 C.ar    1  UNL1        0.0607
     15 C          60.5942   92.8387    2.4092 C.ar    1  UNL1        0.0148
     16 C          61.8019   92.6661    1.5366 C.ar    1  UNL1        0.0028
     17 C          62.9846   91.8913    2.0376 C.ar    1  UNL1        0.0207
     18 C          62.9595   91.2891    3.4111 C.ar    1  UNL1        0.0984
     19 N          61.7517   91.4618    4.2837 N.ar    1  UNL1       -0.2481
     20 C          62.3991   84.7977   11.0812 C.3     1  UNL1        0.2526
     21 O          62.4131   86.2975   11.0650 O.3     1  UNL1       -0.4684
     22 O          61.3923   89.0407   11.7231 O.3     1  UNL1       -0.4760
     23 C          62.5299   90.0121   11.8333 C.3     1  UNL1        0.1688
     24 C          63.2426   90.1873   13.1416 C.3     1  UNL1        0.0609
     25 C          64.3801   91.1587   13.2517 C.3     1  UNL1        0.0758
     26 N          64.8052   91.9549   12.0537 N.3     1  UNL1       -0.2737
     27 C          64.0927   91.7798   10.7454 C.3     1  UNL1        0.0758
     28 C          62.9550   90.8083   10.6352 C.3     1  UNL1        0.0609
     29 C          65.9428   92.9264   12.1639 C.3     1  UNL1        0.0576
     30 C          66.9620   92.7674   13.2529 C.3     1  UNL1        0.0173
     31 C          66.0612   94.0568   11.1850 C.3     1  UNL1        0.0173
@<TRIPOS>BOND
     1    20    21    1
     2    21     1    1
     3     1     2   ar
     4     2     3   ar
     5     3     4   ar
     6     4     7    1
     7     7     8    2
     8     7     9   am
     9     9    11    1
    10    11    12    1
    11    11    13    1
    12    13    14    1
    13    14    15   ar
    14    15    16   ar
    15    16    17   ar
    16    17    18   ar
    17    18    19   ar
    18     4     5   ar
    19     5     6   ar
    20     6    22    1
    21    22    23    1
    22    23    24    1
    23    24    25    1
    24    25    26    1
    25    26    29    1
    26    29    30    1
    27    29    31    1
    28    26    27    1
    29    27    28    1
    30     6     1   ar
    31    28    23    1
    32    19    14   ar
    33     9    10    1
