@<TRIPOS>MOLECULE
*****
 36 40 0 0 0
SMALL
GASTEIGER

@<TRIPOS>ATOM
      1 C          58.3342   94.6819   -3.8575 C.ar    1  UNL1        0.0113
      2 C          58.8171   94.5970   -5.2750 C.ar    1  UNL1        0.0001
      3 C          60.2519   94.2652   -5.5599 C.ar    1  UNL1        0.0170
      4 C          61.2038   94.0183   -4.4272 C.ar    1  UNL1        0.0625
      5 C          60.7209   94.1033   -3.0097 C.ar    1  UNL1        0.0160
      6 C          59.2861   94.4350   -2.7248 C.ar    1  UNL1        0.0001
      7 C          61.6728   93.8564   -1.8770 C.ar    1  UNL1        0.0105
      8 C          63.1076   93.5246   -2.1619 C.ar    1  UNL1        0.0609
      9 C          63.5905   93.4396   -3.5795 C.ar    1  UNL1        0.2610
     10 O          65.0253   93.1078   -3.8644 O.2     1  UNL1       -0.2670
     11 N          62.6386   93.6865   -4.7122 N.ar    1  UNL1       -0.2935
     12 C          63.1215   93.6016   -6.1298 C.3     1  UNL1        0.1335
     13 C          61.1898   93.9413   -0.4594 C.ar    1  UNL1        0.0551
     14 C          60.7306   92.7031    0.2519 C.ar    1  UNL1        0.1422
     15 F          60.7543   91.3800   -0.4543 F       1  UNL1       -0.2041
     16 C          60.2477   92.7881    1.6696 C.ar    1  UNL1        0.0298
     17 C          60.2240   94.1112    2.3758 C.ar    1  UNL1        0.0046
     18 C          60.6832   95.3494    1.6644 C.ar    1  UNL1        0.0298
     19 C          61.1661   95.2644    0.2469 C.ar    1  UNL1        0.1422
     20 F          61.6253   96.5026   -0.4645 F       1  UNL1       -0.2041
     21 C          56.8993   95.0137   -3.5725 C.3     1  UNL1        0.1647
     22 C          55.4645   95.3455   -3.2876 C.ar    1  UNL1        0.0112
     23 C          54.8563   94.9730   -1.9679 C.ar    1  UNL1       -0.0005
     24 C          53.4215   95.3048   -1.6829 C.ar    1  UNL1        0.0112
     25 C          52.5948   96.0090   -2.7176 C.ar    1  UNL1        0.0577
     26 CL         51.1600   96.3407   -2.4327 Cl      1  UNL1       -0.0822
     27 C          53.2029   96.3814   -4.0373 C.ar    1  UNL1        0.0112
     28 C          54.6378   96.0497   -4.3223 C.ar    1  UNL1       -0.0005
     29 C          56.5114   93.5969   -3.8759 C.ar    1  UNL1        0.0901
     30 C          56.0143   93.0819   -5.1941 C.ar    1  UNL1        0.1163
     31 N          55.7482   91.6129   -5.0473 N.ar    1  UNL1       -0.2226
     32 C          56.0809   91.2201   -3.6384 C.ar    1  UNL1        0.1784
     33 N          56.5526   92.4462   -2.9144 N.ar    1  UNL1       -0.3080
     34 C          56.9889   92.5106   -1.4807 C.3     1  UNL1        0.1318
     35 C          57.5250   96.8557   -1.8504 C.3     1  UNL1        0.1753
     36 O          57.2871   96.4306   -3.2691 O.3     1  UNL1       -0.3422
@<TRIPOS>BOND
     1    35    36    1
     2    36    21    1
     3    21    22    1
     4    22    23   ar
     5    23    24   ar
     6    24    25   ar
     7    25    26    1
     8    25    27   ar
     9    27    28   ar
    10    21     1    1
    11     1     2   ar
    12     2     3   ar
    13     3     4   ar
    14     4     5   ar
    15     5     6   ar
    16     5     7   ar
    17     7    13    1
    18    13    14   ar
    19    14    15    1
    20    14    16   ar
    21    16    17   ar
    22    17    18   ar
    23    18    19   ar
    24    19    20    1
    25     7     8   ar
    26     8     9   ar
    27     9    10    2
    28     9    11   ar
    29    11    12    1
    30    21    29    1
    31    29    30   ar
    32    30    31   ar
    33    31    32   ar
    34    32    33   ar
    35    33    34    1
    36    28    22   ar
    37     6     1   ar
    38    19    13   ar
    39    33    29   ar
    40    11     4   ar
@<TRIPOS>MOLECULE
*****
 36 40 0 0 0
SMALL
GASTEIGER

@<TRIPOS>ATOM
      1 C          58.9037   94.4431   -1.7544 C.ar    1  UNL1        0.0113
      2 C          58.2316   93.9631   -0.5023 C.ar    1  UNL1        0.0001
      3 C          59.0566   93.4891    0.6573 C.ar    1  UNL1        0.0170
      4 C          60.5538   93.4950    0.5647 C.ar    1  UNL1        0.0625
      5 C          61.2259   93.9750   -0.6874 C.ar    1  UNL1        0.0160
      6 C          60.4009   94.4491   -1.8469 C.ar    1  UNL1        0.0001
      7 C          62.7230   93.9810   -0.7800 C.ar    1  UNL1        0.0105
      8 C          63.5480   93.5070    0.3796 C.ar    1  UNL1        0.0609
      9 C          62.8759   93.0270    1.6318 C.ar    1  UNL1        0.2610
     10 O          63.7010   92.5529    2.7913 O.2     1  UNL1       -0.2670
     11 N          61.3788   93.0210    1.7243 N.ar    1  UNL1       -0.2935
     12 C          60.7067   92.5410    2.9765 C.3     1  UNL1        0.1335
     13 C          63.3951   94.4610   -2.0321 C.ar    1  UNL1        0.0551
     14 C          63.8042   95.8985   -2.1599 C.ar    1  UNL1        0.1422
     15 F          63.5412   96.8559   -1.0356 F       1  UNL1       -0.2041
     16 C          64.4764   96.3785   -3.4121 C.ar    1  UNL1        0.0298
     17 C          64.7394   95.4210   -4.5364 C.ar    1  UNL1        0.0046
     18 C          64.3303   93.9835   -4.4085 C.ar    1  UNL1        0.0298
     19 C          63.6582   93.5035   -3.1564 C.ar    1  UNL1        0.1422
     20 F          63.2491   92.0661   -3.0286 F       1  UNL1       -0.2041
     21 C          58.0787   94.9171   -2.9140 C.3     1  UNL1        0.1647
     22 C          57.2537   95.3911   -4.0736 C.ar    1  UNL1        0.0112
     23 C          56.1491   96.3817   -3.8530 C.ar    1  UNL1       -0.0005
     24 C          55.3241   96.8557   -5.0126 C.ar    1  UNL1        0.0112
     25 C          55.6036   96.3392   -6.3928 C.ar    1  UNL1        0.0577
     26 CL         54.7787   96.8131   -7.5524 Cl      1  UNL1       -0.0822
     27 C          56.7082   95.3486   -6.6134 C.ar    1  UNL1        0.0112
     28 C          57.5333   94.8746   -5.4538 C.ar    1  UNL1       -0.0005
     29 C          57.5227   93.5344   -3.0837 C.ar    1  UNL1        0.0901
     30 C          58.2101   92.3843   -3.7580 C.ar    1  UNL1        0.1163
     31 N          57.2938   91.1980   -3.6998 N.ar    1  UNL1       -0.2226
     32 C          56.0402   91.6150   -2.9895 C.ar    1  UNL1        0.1784
     33 N          56.1816   93.0589   -2.6087 N.ar    1  UNL1       -0.3080
     34 C          55.1612   93.8828   -1.8807 C.3     1  UNL1        0.1318
     35 C          59.5859   96.8559   -3.7623 C.3     1  UNL1        0.1753
     36 O          58.6347   96.2999   -2.7444 O.3     1  UNL1       -0.3422
@<TRIPOS>BOND
     1    35    36    1
     2    36    21    1
     3    21    22    1
     4    22    23   ar
     5    23    24   ar
     6    24    25   ar
     7    25    26    1
     8    25    27   ar
     9    27    28   ar
    10    21     1    1
    11     1     2   ar
    12     2     3   ar
    13     3     4   ar
    14     4     5   ar
    15     5     6   ar
    16     5     7   ar
    17     7    13    1
    18    13    14   ar
    19    14    15    1
    20    14    16   ar
    21    16    17   ar
    22    17    18   ar
    23    18    19   ar
    24    19    20    1
    25     7     8   ar
    26     8     9   ar
    27     9    10    2
    28     9    11   ar
    29    11    12    1
    30    21    29    1
    31    29    30   ar
    32    30    31   ar
    33    31    32   ar
    34    32    33   ar
    35    33    34    1
    36    28    22   ar
    37     6     1   ar
    38    19    13   ar
    39    33    29   ar
    40    11     4   ar
@<TRIPOS>MOLECULE
*****
 36 40 0 0 0
SMALL
GASTEIGER

@<TRIPOS>ATOM
      1 C          58.5081   94.3962   -2.2381 C.ar    1  UNL1        0.0113
      2 C          58.1205   94.0531   -0.8303 C.ar    1  UNL1        0.0001
      3 C          59.1780   93.7049    0.1749 C.ar    1  UNL1        0.0170
      4 C          60.6229   93.6997   -0.2277 C.ar    1  UNL1        0.0625
      5 C          61.0104   94.0428   -1.6355 C.ar    1  UNL1        0.0160
      6 C          59.9530   94.3910   -2.6408 C.ar    1  UNL1        0.0001
      7 C          62.4554   94.0377   -2.0382 C.ar    1  UNL1        0.0105
      8 C          63.5128   93.6894   -1.0330 C.ar    1  UNL1        0.0609
      9 C          63.1253   93.3463    0.3750 C.ar    1  UNL1        0.2610
     10 O          64.1828   92.9980    1.3802 O.2     1  UNL1       -0.2670
     11 N          61.6804   93.3514    0.7776 N.ar    1  UNL1       -0.2935
     12 C          61.2929   93.0083    2.1855 C.3     1  UNL1        0.1335
     13 C          62.8429   94.3807   -3.4460 C.ar    1  UNL1        0.0551
     14 C          63.3724   93.3150   -4.3591 C.ar    1  UNL1        0.1422
     15 F          63.5145   91.9061   -3.8643 F       1  UNL1       -0.2041
     16 C          63.7600   93.6581   -5.7670 C.ar    1  UNL1        0.0298
     17 C          63.6179   95.0670   -6.2618 C.ar    1  UNL1        0.0046
     18 C          63.0884   96.1328   -5.3487 C.ar    1  UNL1        0.0298
     19 C          62.7009   95.7897   -3.9409 C.ar    1  UNL1        0.1422
     20 F          62.1713   96.8555   -3.0278 F       1  UNL1       -0.2041
     21 C          57.4506   94.7445   -3.2434 C.3     1  UNL1        0.1647
     22 C          56.3932   95.0927   -4.2487 C.ar    1  UNL1        0.0112
     23 C          56.5128   94.6055   -5.6624 C.ar    1  UNL1       -0.0005
     24 C          55.4554   94.9537   -6.6677 C.ar    1  UNL1        0.0112
     25 C          54.2783   95.7891   -6.2593 C.ar    1  UNL1        0.0577
     26 CL         53.2209   96.1373   -7.2646 Cl      1  UNL1       -0.0822
     27 C          54.1587   96.2762   -4.8457 C.ar    1  UNL1        0.0112
     28 C          55.2161   95.9280   -3.8404 C.ar    1  UNL1       -0.0005
     29 C          57.1179   93.2900   -3.3973 C.ar    1  UNL1        0.0901
     30 C          57.8641   92.2992   -4.2407 C.ar    1  UNL1        0.1163
     31 N          57.1879   90.9676   -4.0993 N.ar    1  UNL1       -0.2226
     32 C          56.0236   91.1356   -3.1685 C.ar    1  UNL1        0.1784
     33 N          55.9804   92.5708   -2.7346 N.ar    1  UNL1       -0.3080
     34 C          54.9760   93.1800   -1.8018 C.3     1  UNL1        0.1318
     35 C          58.7356   96.8556   -4.0447 C.3     1  UNL1        0.1753
     36 O          57.7833   96.1989   -3.0896 O.3     1  UNL1       -0.3422
@<TRIPOS>BOND
     1    35    36    1
     2    36    21    1
     3    21    22    1
     4    22    23   ar
     5    23    24   ar
     6    24    25   ar
     7    25    26    1
     8    25    27   ar
     9    27    28   ar
    10    21     1    1
    11     1     2   ar
    12     2     3   ar
    13     3     4   ar
    14     4     5   ar
    15     5     6   ar
    16     5     7   ar
    17     7    13    1
    18    13    14   ar
    19    14    15    1
    20    14    16   ar
    21    16    17   ar
    22    17    18   ar
    23    18    19   ar
    24    19    20    1
    25     7     8   ar
    26     8     9   ar
    27     9    10    2
    28     9    11   ar
    29    11    12    1
    30    21    29    1
    31    29    30   ar
    32    30    31   ar
    33    31    32   ar
    34    32    33   ar
    35    33    34    1
    36    28    22   ar
    37     6     1   ar
    38    19    13   ar
    39    33    29   ar
    40    11     4   ar
@<TRIPOS>MOLECULE
*****
 36 40 0 0 0
SMALL
GASTEIGER

@<TRIPOS>ATOM
      1 C          63.0239   85.7811   12.7773 C.ar    1  UNL1        0.0113
      2 C          63.7790   86.6575   13.7319 C.ar    1  UNL1        0.0001
      3 C          63.9412   88.1198   13.4395 C.ar    1  UNL1        0.0170
      4 C          63.3483   88.7055   12.1923 C.ar    1  UNL1        0.0625
      5 C          62.5931   87.8290   11.2377 C.ar    1  UNL1        0.0160
      6 C          62.4309   86.3668   11.5301 C.ar    1  UNL1        0.0001
      7 C          62.0001   88.4147    9.9906 C.ar    1  UNL1        0.0105
      8 C          62.1623   89.8769    9.6981 C.ar    1  UNL1        0.0609
      9 C          62.9175   90.7535   10.6528 C.ar    1  UNL1        0.2610
     10 O          63.0797   92.2157   10.3604 O.2     1  UNL1       -0.2670
     11 N          63.5105   90.1678   11.8999 N.ar    1  UNL1       -0.2935
     12 C          64.2657   91.0443   12.8546 C.3     1  UNL1        0.1335
     13 C          61.2449   87.5382    9.0359 C.ar    1  UNL1        0.0551
     14 C          59.7903   87.7938    8.7735 C.ar    1  UNL1        0.1422
     15 F          59.0909   88.9258    9.4658 F       1  UNL1       -0.2041
     16 C          59.0351   86.9172    7.8188 C.ar    1  UNL1        0.0298
     17 C          59.7345   85.7852    7.1265 C.ar    1  UNL1        0.0046
     18 C          61.1891   85.5297    7.3889 C.ar    1  UNL1        0.0298
     19 C          61.9443   86.4061    8.3436 C.ar    1  UNL1        0.1422
     20 F          63.3989   86.1506    8.6060 F       1  UNL1       -0.2041
     21 C          62.8616   84.3188   13.0697 C.3     1  UNL1        0.1647
     22 C          62.6994   82.8566   13.3622 C.ar    1  UNL1        0.0112
     23 C          61.3357   82.2921   13.6302 C.ar    1  UNL1       -0.0005
     24 C          61.1735   80.8298   13.9227 C.ar    1  UNL1        0.0112
     25 C          62.3749   79.9321   13.9471 C.ar    1  UNL1        0.0577
     26 CL         62.2127   78.4699   14.2396 Cl      1  UNL1       -0.0822
     27 C          63.7385   80.4965   13.6790 C.ar    1  UNL1        0.0112
     28 C          63.9008   81.9588   13.3866 C.ar    1  UNL1       -0.0005
     29 C          62.9743   84.6001   14.5387 C.ar    1  UNL1        0.0901
     30 C          61.8305   84.7951   15.4894 C.ar    1  UNL1        0.1163
     31 N          62.3999   85.0514   16.8533 N.ar    1  UNL1       -0.2226
     32 C          63.8956   85.0147   16.7456 C.ar    1  UNL1        0.1784
     33 N          64.2506   84.7358   15.3152 N.ar    1  UNL1       -0.3080
     34 C          65.6382   84.6140   14.7587 C.3     1  UNL1        0.1318
     35 C          63.9229   83.4800   10.8516 C.3     1  UNL1        0.1753
     36 O          62.7490   84.0374   11.6007 O.3     1  UNL1       -0.3422
@<TRIPOS>BOND
     1    35    36    1
     2    36    21    1
     3    21    22    1
     4    22    23   ar
     5    23    24   ar
     6    24    25   ar
     7    25    26    1
     8    25    27   ar
     9    27    28   ar
    10    21     1    1
    11     1     2   ar
    12     2     3   ar
    13     3     4   ar
    14     4     5   ar
    15     5     6   ar
    16     5     7   ar
    17     7    13    1
    18    13    14   ar
    19    14    15    1
    20    14    16   ar
    21    16    17   ar
    22    17    18   ar
    23    18    19   ar
    24    19    20    1
    25     7     8   ar
    26     8     9   ar
    27     9    10    2
    28     9    11   ar
    29    11    12    1
    30    21    29    1
    31    29    30   ar
    32    30    31   ar
    33    31    32   ar
    34    32    33   ar
    35    33    34    1
    36    28    22   ar
    37     6     1   ar
    38    19    13   ar
    39    33    29   ar
    40    11     4   ar
@<TRIPOS>MOLECULE
*****
 36 40 0 0 0
SMALL
GASTEIGER

@<TRIPOS>ATOM
      1 C          58.3418   94.2021   -1.1138 C.ar    1  UNL1        0.0113
      2 C          58.2758   93.6744    0.2888 C.ar    1  UNL1        0.0001
      3 C          59.5328   93.2578    0.9932 C.ar    1  UNL1        0.0170
      4 C          60.8558   93.3690    0.2952 C.ar    1  UNL1        0.0625
      5 C          60.9218   93.8968   -1.1074 C.ar    1  UNL1        0.0160
      6 C          59.6648   94.3133   -1.8118 C.ar    1  UNL1        0.0001
      7 C          62.2448   94.0079   -1.8054 C.ar    1  UNL1        0.0105
      8 C          63.5018   93.5914   -1.1010 C.ar    1  UNL1        0.0609
      9 C          63.4359   93.0636    0.3016 C.ar    1  UNL1        0.2610
     10 O          64.6929   92.6470    1.0061 O.2     1  UNL1       -0.2670
     11 N          62.1129   92.9524    0.9997 N.ar    1  UNL1       -0.2935
     12 C          62.0469   92.4247    2.4022 C.3     1  UNL1        0.1335
     13 C          62.3108   94.5357   -3.2079 C.ar    1  UNL1        0.0551
     14 C          61.9163   95.9542   -3.4949 C.ar    1  UNL1        0.1422
     15 F          61.4559   96.8449   -2.3793 F       1  UNL1       -0.2041
     16 C          61.9823   96.4819   -4.8975 C.ar    1  UNL1        0.0298
     17 C          62.4428   95.5912   -6.0130 C.ar    1  UNL1        0.0046
     18 C          62.8372   94.1727   -5.7261 C.ar    1  UNL1        0.0298
     19 C          62.7712   93.6449   -4.3236 C.ar    1  UNL1        0.1422
     20 F          63.1657   92.2265   -4.0367 F       1  UNL1       -0.2041
     21 C          57.0847   94.6187   -1.8183 C.3     1  UNL1        0.1647
     22 C          55.8277   95.0353   -2.5228 C.ar    1  UNL1        0.0112
     23 C          54.5498   95.1844   -1.7515 C.ar    1  UNL1       -0.0005
     24 C          53.2928   95.6009   -2.4560 C.ar    1  UNL1        0.0112
     25 C          53.3136   95.8684   -3.9318 C.ar    1  UNL1        0.0577
     26 CL         52.0566   96.2849   -4.6364 Cl      1  UNL1       -0.0822
     27 C          54.5914   95.7192   -4.7031 C.ar    1  UNL1        0.0112
     28 C          55.8485   95.3027   -3.9986 C.ar    1  UNL1       -0.0005
     29 C          57.0511   93.3024   -2.5366 C.ar    1  UNL1        0.0901
     30 C          56.2725   92.0900   -2.1195 C.ar    1  UNL1        0.1163
     31 N          56.5304   91.0055   -3.1233 N.ar    1  UNL1       -0.2226
     32 C          57.4684   91.5477   -4.1608 C.ar    1  UNL1        0.1784
     33 N          57.7902   92.9672   -3.7982 N.ar    1  UNL1       -0.3080
     34 C          58.6926   93.8897   -4.5628 C.3     1  UNL1        0.1318
     35 C          58.2892   96.8560   -1.2761 C.3     1  UNL1        0.1753
     36 O          57.1183   95.9351   -1.1000 O.3     1  UNL1       -0.3422
@<TRIPOS>BOND
     1    35    36    1
     2    36    21    1
     3    21    22    1
     4    22    23   ar
     5    23    24   ar
     6    24    25   ar
     7    25    26    1
     8    25    27   ar
     9    27    28   ar
    10    21     1    1
    11     1     2   ar
    12     2     3   ar
    13     3     4   ar
    14     4     5   ar
    15     5     6   ar
    16     5     7   ar
    17     7    13    1
    18    13    14   ar
    19    14    15    1
    20    14    16   ar
    21    16    17   ar
    22    17    18   ar
    23    18    19   ar
    24    19    20    1
    25     7     8   ar
    26     8     9   ar
    27     9    10    2
    28     9    11   ar
    29    11    12    1
    30    21    29    1
    31    29    30   ar
    32    30    31   ar
    33    31    32   ar
    34    32    33   ar
    35    33    34    1
    36    28    22   ar
    37     6     1   ar
    38    19    13   ar
    39    33    29   ar
    40    11     4   ar
@<TRIPOS>MOLECULE
*****
 36 40 0 0 0
SMALL
GASTEIGER

@<TRIPOS>ATOM
      1 C          61.7819   94.0041   -1.1002 C.ar    1  UNL1        0.0113
      2 C          63.1882   94.2943   -1.5341 C.ar    1  UNL1        0.0001
      3 C          63.4481   94.8899   -2.8860 C.ar    1  UNL1        0.0170
      4 C          62.3018   95.1952   -3.8040 C.ar    1  UNL1        0.0625
      5 C          60.8955   94.9051   -3.3701 C.ar    1  UNL1        0.0160
      6 C          60.6356   94.3095   -2.0182 C.ar    1  UNL1        0.0001
      7 C          59.7492   95.2105   -4.2881 C.ar    1  UNL1        0.0105
      8 C          60.0091   95.8060   -5.6400 C.ar    1  UNL1        0.0609
      9 C          61.4154   96.0962   -6.0740 C.ar    1  UNL1        0.2610
     10 O          61.6753   96.6918   -7.4259 O.2     1  UNL1       -0.2670
     11 N          62.5617   95.7908   -5.1560 N.ar    1  UNL1       -0.2935
     12 C          63.9679   96.0810   -5.5899 C.3     1  UNL1        0.1335
     13 C          58.3430   94.9203   -3.8542 C.ar    1  UNL1        0.0551
     14 C          57.7111   95.7348   -2.7646 C.ar    1  UNL1        0.1422
     15 F          58.4855   96.8395   -2.1089 F       1  UNL1       -0.2041
     16 C          56.3049   95.4446   -2.3307 C.ar    1  UNL1        0.0298
     17 C          55.5305   94.3399   -2.9864 C.ar    1  UNL1        0.0046
     18 C          56.1624   93.5254   -4.0760 C.ar    1  UNL1        0.0298
     19 C          57.5686   93.8155   -4.5099 C.ar    1  UNL1        0.1422
     20 F          58.2005   93.0010   -5.5995 F       1  UNL1       -0.2041
     21 C          61.5220   93.4086    0.2518 C.3     1  UNL1        0.1647
     22 C          61.2620   92.8130    1.6037 C.ar    1  UNL1        0.0112
     23 C          59.9721   93.0991    2.3138 C.ar    1  UNL1       -0.0005
     24 C          59.7121   92.5035    3.6658 C.ar    1  UNL1        0.0112
     25 C          60.7421   91.6220    4.3076 C.ar    1  UNL1        0.0577
     26 CL         60.4822   91.0265    5.6596 Cl      1  UNL1       -0.0822
     27 C          62.0321   91.3360    3.5976 C.ar    1  UNL1        0.0112
     28 C          62.2920   91.9315    2.2456 C.ar    1  UNL1       -0.0005
     29 C          62.1206   94.6211    0.9010 C.ar    1  UNL1        0.0901
     30 C          63.5256   94.7449    1.4114 C.ar    1  UNL1        0.1163
     31 N          63.6926   96.1231    1.9797 N.ar    1  UNL1       -0.2226
     32 C          62.3908   96.8510    1.8204 C.ar    1  UNL1        0.1784
     33 N          61.4192   95.9228    1.1537 N.ar    1  UNL1       -0.3080
     34 C          59.9962   96.2403    0.8016 C.3     1  UNL1        0.1318
     35 C          59.4503   92.1444   -0.6755 C.3     1  UNL1        0.1753
     36 O          60.9234   92.1960   -0.3974 O.3     1  UNL1       -0.3422
@<TRIPOS>BOND
     1    35    36    1
     2    36    21    1
     3    21    22    1
     4    22    23   ar
     5    23    24   ar
     6    24    25   ar
     7    25    26    1
     8    25    27   ar
     9    27    28   ar
    10    21     1    1
    11     1     2   ar
    12     2     3   ar
    13     3     4   ar
    14     4     5   ar
    15     5     6   ar
    16     5     7   ar
    17     7    13    1
    18    13    14   ar
    19    14    15    1
    20    14    16   ar
    21    16    17   ar
    22    17    18   ar
    23    18    19   ar
    24    19    20    1
    25     7     8   ar
    26     8     9   ar
    27     9    10    2
    28     9    11   ar
    29    11    12    1
    30    21    29    1
    31    29    30   ar
    32    30    31   ar
    33    31    32   ar
    34    32    33   ar
    35    33    34    1
    36    28    22   ar
    37     6     1   ar
    38    19    13   ar
    39    33    29   ar
    40    11     4   ar
@<TRIPOS>MOLECULE
*****
 36 40 0 0 0
SMALL
GASTEIGER

@<TRIPOS>ATOM
      1 C          64.2315   90.7394   12.3370 C.ar    1  UNL1        0.0113
      2 C          63.4619   91.5159   11.3101 C.ar    1  UNL1        0.0001
      3 C          62.4164   90.8312   10.4805 C.ar    1  UNL1        0.0170
      4 C          62.1406   89.3701   10.6779 C.ar    1  UNL1        0.0625
      5 C          62.9102   88.5936   11.7048 C.ar    1  UNL1        0.0160
      6 C          63.9557   89.2782   12.5344 C.ar    1  UNL1        0.0001
      7 C          62.6344   87.1324   11.9022 C.ar    1  UNL1        0.0105
      8 C          61.5889   86.4478   11.0727 C.ar    1  UNL1        0.0609
      9 C          60.8192   87.2243   10.0457 C.ar    1  UNL1        0.2610
     10 O          59.7737   86.5396    9.2162 O.2     1  UNL1       -0.2670
     11 N          61.0950   88.6854    9.8483 N.ar    1  UNL1       -0.2935
     12 C          60.3253   89.4619    8.8214 C.3     1  UNL1        0.1335
     13 C          63.4041   86.3559   12.9291 C.ar    1  UNL1        0.0551
     14 C          63.7168   86.9756   14.2589 C.ar    1  UNL1        0.1422
     15 F          63.2598   88.3718   14.5617 F       1  UNL1       -0.2041
     16 C          64.4865   86.1990   15.2858 C.ar    1  UNL1        0.0298
     17 C          64.9435   84.8028   14.9830 C.ar    1  UNL1        0.0046
     18 C          64.6308   84.1831   13.6533 C.ar    1  UNL1        0.0298
     19 C          63.8611   84.9596   12.6264 C.ar    1  UNL1        0.1422
     20 F          63.5484   84.3399   11.2966 F       1  UNL1       -0.2041
     21 C          65.2771   91.4240   13.1666 C.3     1  UNL1        0.1647
     22 C          66.3226   92.1087   13.9961 C.ar    1  UNL1        0.0112
     23 C          67.2589   91.2974   14.8418 C.ar    1  UNL1       -0.0005
     24 C          68.3044   91.9820   15.6713 C.ar    1  UNL1        0.0112
     25 C          68.4137   93.4779   15.6552 C.ar    1  UNL1        0.0577
     26 CL         69.4592   94.1625   16.4847 Cl      1  UNL1       -0.0822
     27 C          67.4775   94.2892   14.8095 C.ar    1  UNL1        0.0112
     28 C          66.4319   93.6046   13.9799 C.ar    1  UNL1       -0.0005
     29 C          65.6947   92.2317   11.9736 C.ar    1  UNL1        0.0901
     30 C          64.8406   93.2185   11.2342 C.ar    1  UNL1        0.1163
     31 N          65.6578   93.7912   10.1141 N.ar    1  UNL1       -0.2226
     32 C          67.0169   93.1583   10.1614 C.ar    1  UNL1        0.1784
     33 N          67.0397   92.1945   11.3106 N.ar    1  UNL1       -0.3080
     34 C          68.2032   91.3430   11.7242 C.3     1  UNL1        0.1318
     35 C          64.0414   91.2501   15.4453 C.3     1  UNL1        0.1753
     36 O          64.8595   90.6163   14.3595 O.3     1  UNL1       -0.3422
@<TRIPOS>BOND
     1    35    36    1
     2    36    21    1
     3    21    22    1
     4    22    23   ar
     5    23    24   ar
     6    24    25   ar
     7    25    26    1
     8    25    27   ar
     9    27    28   ar
    10    21     1    1
    11     1     2   ar
    12     2     3   ar
    13     3     4   ar
    14     4     5   ar
    15     5     6   ar
    16     5     7   ar
    17     7    13    1
    18    13    14   ar
    19    14    15    1
    20    14    16   ar
    21    16    17   ar
    22    17    18   ar
    23    18    19   ar
    24    19    20    1
    25     7     8   ar
    26     8     9   ar
    27     9    10    2
    28     9    11   ar
    29    11    12    1
    30    21    29    1
    31    29    30   ar
    32    30    31   ar
    33    31    32   ar
    34    32    33   ar
    35    33    34    1
    36    28    22   ar
    37     6     1   ar
    38    19    13   ar
    39    33    29   ar
    40    11     4   ar
@<TRIPOS>MOLECULE
*****
 36 40 0 0 0
SMALL
GASTEIGER

@<TRIPOS>ATOM
      1 C          64.2344   90.7401   12.3465 C.ar    1  UNL1        0.0113
      2 C          63.4623   91.5174   11.3220 C.ar    1  UNL1        0.0001
      3 C          62.4168   90.8328   10.4926 C.ar    1  UNL1        0.0170
      4 C          62.1433   89.3708   10.6876 C.ar    1  UNL1        0.0625
      5 C          62.9154   88.5936   11.7122 C.ar    1  UNL1        0.0160
      6 C          63.9610   89.2782   12.5416 C.ar    1  UNL1        0.0001
      7 C          62.6420   87.1317   11.9072 C.ar    1  UNL1        0.0105
      8 C          61.5964   86.4470   11.0778 C.ar    1  UNL1        0.0609
      9 C          60.8243   87.2243   10.0532 C.ar    1  UNL1        0.2610
     10 O          59.7787   86.5396    9.2237 O.2     1  UNL1       -0.2670
     11 N          61.0977   88.6862    9.8581 N.ar    1  UNL1       -0.2935
     12 C          60.3256   89.4635    8.8336 C.3     1  UNL1        0.1335
     13 C          63.4141   86.3544   12.9317 C.ar    1  UNL1        0.0551
     14 C          63.8669   84.9569   12.6283 C.ar    1  UNL1        0.1422
     15 F          63.5476   84.3367   11.3004 F       1  UNL1       -0.2041
     16 C          64.6390   84.1797   13.6529 C.ar    1  UNL1        0.0298
     17 C          64.9583   84.7999   14.9808 C.ar    1  UNL1        0.0046
     18 C          64.5055   86.1973   15.2842 C.ar    1  UNL1        0.0298
     19 C          63.7334   86.9746   14.2597 C.ar    1  UNL1        0.1422
     20 F          63.2806   88.3721   14.5631 F       1  UNL1       -0.2041
     21 C          65.2800   91.4248   13.1761 C.3     1  UNL1        0.1647
     22 C          66.3256   92.1094   14.0055 C.ar    1  UNL1        0.0112
     23 C          66.4329   93.6056   13.9916 C.ar    1  UNL1       -0.0005
     24 C          67.4785   94.2902   14.8211 C.ar    1  UNL1        0.0112
     25 C          68.4168   93.4788   15.6644 C.ar    1  UNL1        0.0577
     26 CL         69.4624   94.1634   16.4938 Cl      1  UNL1       -0.0822
     27 C          68.3095   91.9827   15.6783 C.ar    1  UNL1        0.0112
     28 C          67.2639   91.2980   14.8488 C.ar    1  UNL1       -0.0005
     29 C          65.6983   92.2316   11.9828 C.ar    1  UNL1        0.0901
     30 C          64.8446   93.2176   11.2418 C.ar    1  UNL1        0.1163
     31 N          65.6625   93.7895   10.1219 N.ar    1  UNL1       -0.2226
     32 C          67.0218   93.1570   10.1708 C.ar    1  UNL1        0.1784
     33 N          67.0439   92.1942   11.3208 N.ar    1  UNL1       -0.3080
     34 C          68.2073   91.3433   11.7361 C.3     1  UNL1        0.1318
     35 C          64.0456   91.2534   15.4557 C.3     1  UNL1        0.1753
     36 O          64.8617   90.6179   14.3694 O.3     1  UNL1       -0.3422
@<TRIPOS>BOND
     1    35    36    1
     2    36    21    1
     3    21    22    1
     4    22    23   ar
     5    23    24   ar
     6    24    25   ar
     7    25    26    1
     8    25    27   ar
     9    27    28   ar
    10    21     1    1
    11     1     2   ar
    12     2     3   ar
    13     3     4   ar
    14     4     5   ar
    15     5     6   ar
    16     5     7   ar
    17     7    13    1
    18    13    14   ar
    19    14    15    1
    20    14    16   ar
    21    16    17   ar
    22    17    18   ar
    23    18    19   ar
    24    19    20    1
    25     7     8   ar
    26     8     9   ar
    27     9    10    2
    28     9    11   ar
    29    11    12    1
    30    21    29    1
    31    29    30   ar
    32    30    31   ar
    33    31    32   ar
    34    32    33   ar
    35    33    34    1
    36    28    22   ar
    37     6     1   ar
    38    19    13   ar
    39    33    29   ar
    40    11     4   ar
@<TRIPOS>MOLECULE
*****
 36 40 0 0 0
SMALL
GASTEIGER

@<TRIPOS>ATOM
      1 C          61.5534   93.9462   -0.9773 C.ar    1  UNL1        0.0113
      2 C          62.9163   94.3775   -1.4314 C.ar    1  UNL1        0.0001
      3 C          63.0922   95.0101   -2.7800 C.ar    1  UNL1        0.0170
      4 C          61.9050   95.2114   -3.6745 C.ar    1  UNL1        0.0625
      5 C          60.5421   94.7801   -3.2205 C.ar    1  UNL1        0.0160
      6 C          60.3662   94.1475   -1.8718 C.ar    1  UNL1        0.0001
      7 C          59.3550   94.9814   -4.1150 C.ar    1  UNL1        0.0105
      8 C          59.5308   95.6140   -5.4636 C.ar    1  UNL1        0.0609
      9 C          60.8938   96.0454   -5.9178 C.ar    1  UNL1        0.2610
     10 O          61.0697   96.6780   -7.2664 O.2     1  UNL1       -0.2670
     11 N          62.0809   95.8441   -5.0232 N.ar    1  UNL1       -0.2935
     12 C          63.4439   96.2754   -5.4773 C.3     1  UNL1        0.1335
     13 C          57.9920   94.5501   -3.6609 C.ar    1  UNL1        0.0551
     14 C          57.4772   93.1883   -4.0221 C.ar    1  UNL1        0.1422
     15 F          58.3254   92.2578   -4.8374 F       1  UNL1       -0.2041
     16 C          56.1142   92.7570   -3.5680 C.ar    1  UNL1        0.0298
     17 C          55.2660   93.6874   -2.7527 C.ar    1  UNL1        0.0046
     18 C          55.7808   95.0492   -2.3915 C.ar    1  UNL1        0.0298
     19 C          57.1437   95.4806   -2.8456 C.ar    1  UNL1        0.1422
     20 F          57.6585   96.8424   -2.4844 F       1  UNL1       -0.2041
     21 C          61.3775   93.3135    0.3714 C.3     1  UNL1        0.1647
     22 C          61.2016   92.6809    1.7200 C.ar    1  UNL1        0.0112
     23 C          62.2249   91.7114    2.2329 C.ar    1  UNL1       -0.0005
     24 C          62.0490   91.0788    3.5815 C.ar    1  UNL1        0.0112
     25 C          60.8499   91.4156    4.4173 C.ar    1  UNL1        0.0577
     26 CL         60.6740   90.7830    5.7660 Cl      1  UNL1       -0.0822
     27 C          59.8266   92.3851    3.9045 C.ar    1  UNL1        0.0112
     28 C          60.0024   93.0177    2.5558 C.ar    1  UNL1       -0.0005
     29 C          61.7585   94.6072    1.0279 C.ar    1  UNL1        0.0901
     30 C          60.8370   95.7558    1.3137 C.ar    1  UNL1        0.1163
     31 N          61.6369   96.8380    1.9764 N.ar    1  UNL1       -0.2226
     32 C          63.0528   96.3582    2.1001 C.ar    1  UNL1        0.1784
     33 N          63.1279   94.9796    1.5139 N.ar    1  UNL1       -0.3080
     34 C          64.3566   94.1235    1.4287 C.3     1  UNL1        0.1318
     35 C          59.5543   91.6149   -0.3639 C.3     1  UNL1        0.1753
     36 O          60.9965   92.0198   -0.2851 O.3     1  UNL1       -0.3422
@<TRIPOS>BOND
     1    35    36    1
     2    36    21    1
     3    21    22    1
     4    22    23   ar
     5    23    24   ar
     6    24    25   ar
     7    25    26    1
     8    25    27   ar
     9    27    28   ar
    10    21     1    1
    11     1     2   ar
    12     2     3   ar
    13     3     4   ar
    14     4     5   ar
    15     5     6   ar
    16     5     7   ar
    17     7    13    1
    18    13    14   ar
    19    14    15    1
    20    14    16   ar
    21    16    17   ar
    22    17    18   ar
    23    18    19   ar
    24    19    20    1
    25     7     8   ar
    26     8     9   ar
    27     9    10    2
    28     9    11   ar
    29    11    12    1
    30    21    29    1
    31    29    30   ar
    32    30    31   ar
    33    31    32   ar
    34    32    33   ar
    35    33    34    1
    36    28    22   ar
    37     6     1   ar
    38    19    13   ar
    39    33    29   ar
    40    11     4   ar
