@<TRIPOS>MOLECULE
*****
 25 28 0 0 0
SMALL
GASTEIGER

@<TRIPOS>ATOM
      1 C          64.1159   91.1504   12.7070 C.ar    1  UNL1        0.1386
      2 C          63.8411   91.6029   11.3035 C.ar    1  UNL1        0.0369
      3 C          63.0598   90.7247   10.3717 C.ar    1  UNL1        0.0043
      4 C          62.5532   89.3939   10.8435 C.ar    1  UNL1        0.0152
      5 C          62.8279   88.9414   12.2469 C.ar    1  UNL1        0.0043
      6 C          63.6093   89.8197   13.1787 C.ar    1  UNL1        0.0369
      7 C          61.7719   88.5157    9.9117 C.2     1  UNL1        0.0763
      8 N          60.5875   89.0688    9.1761 N.2     1  UNL1       -0.1836
      9 N          59.8061   88.1906    8.2443 N.am    1  UNL1       -0.2062
     10 C          60.2092   86.7592    8.0481 C.2     1  UNL1        0.2410
     11 O          59.4279   85.8809    7.1164 O.2     1  UNL1       -0.2734
     12 C          61.3937   86.2059    8.7838 C.3     1  UNL1        0.0841
     13 C          62.5780   85.6527    9.5194 C.3     1  UNL1        0.0160
     14 C          62.1750   87.0842    9.7155 C.3     1  UNL1        0.0509
     15 H          59.0288   88.5537    7.7615 H       1  UNL1        0.1772
     16 O          64.8972   92.0286   13.6388 O.3     1  UNL1       -0.4754
     17 C          66.2581   91.6040   14.1053 C.3     1  UNL1        0.2068
     18 C          67.4840   92.1317   13.4208 C.3     1  UNL1        0.0646
     19 C          67.6318   91.9924   11.9346 C.3     1  UNL1        0.0759
     20 C          68.6272   92.4011    8.8537 C.3     1  UNL1        0.0173
     21 C          67.7240   93.3230    9.6180 C.3     1  UNL1        0.0576
     22 C          67.1196   94.5946    9.1005 C.3     1  UNL1        0.0174
     23 C          66.2886   95.1926   10.1968 C.3     1  UNL1        0.0187
     24 C          66.3794   94.2906   11.3918 C.3     1  UNL1        0.0721
     25 N          67.2664   93.1351   11.0342 N.3     1  UNL1       -0.2738
@<TRIPOS>BOND
     1    21    20    1
     2    21    22    1
     3    22    23    1
     4    23    24    1
     5    24    25    1
     6    25    19    1
     7    19    18    1
     8    18    17    1
     9    17    16    1
    10    16     1    1
    11     1     2   ar
    12     2     3   ar
    13     3     4   ar
    14     4     7    1
    15     7     8    2
    16     8     9    1
    17     9    10   am
    18    10    11    2
    19    10    12    1
    20    12    13    1
    21    14    13    1
    22     4     5   ar
    23     5     6   ar
    24    25    21    1
    25     6     1   ar
    26    14     7    1
    27    14    12    1
    28     9    15    1
@<TRIPOS>MOLECULE
*****
 25 28 0 0 0
SMALL
GASTEIGER

@<TRIPOS>ATOM
      1 C          63.3501   88.2915   16.1751 C.ar    1  UNL1        0.1386
      2 C          63.2097   89.7010   16.6690 C.ar    1  UNL1        0.0369
      3 C          63.7825   90.8354   15.8722 C.ar    1  UNL1        0.0043
      4 C          64.4956   90.5605   14.5815 C.ar    1  UNL1        0.0152
      5 C          64.6359   89.1511   14.0876 C.ar    1  UNL1        0.0043
      6 C          64.0631   88.0167   14.8844 C.ar    1  UNL1        0.0369
      7 C          65.0683   91.6950   13.7846 C.2     1  UNL1        0.0763
      8 N          65.9260   92.7257   14.4568 N.2     1  UNL1       -0.1836
      9 N          66.4987   93.8602   13.6600 N.am    1  UNL1       -0.2062
     10 C          66.2138   93.9639   12.1910 C.2     1  UNL1        0.2410
     11 O          66.7865   95.0984   11.3941 O.2     1  UNL1       -0.2734
     12 C          65.3560   92.9331   11.5187 C.3     1  UNL1        0.0841
     13 C          64.4984   91.9024   10.8465 C.3     1  UNL1        0.0160
     14 C          64.7833   91.7986   12.3155 C.3     1  UNL1        0.0509
     15 H          67.0616   94.5368   14.1012 H       1  UNL1        0.1772
     16 O          62.7773   87.1571   16.9719 O.3     1  UNL1       -0.4754
     17 C          63.3172   85.7688   16.7953 C.3     1  UNL1        0.2068
     18 C          62.6374   84.8131   15.8600 C.3     1  UNL1        0.0646
     19 C          63.3387   84.3548   14.6158 C.3     1  UNL1        0.0759
     20 C          64.3827   83.2762   11.7182 C.3     1  UNL1        0.0173
     21 C          63.4058   82.5797   12.6183 C.3     1  UNL1        0.0576
     22 C          62.7372   81.2651   12.3448 C.3     1  UNL1        0.0174
     23 C          61.8441   80.9483   13.5076 C.3     1  UNL1        0.0187
     24 C          61.9607   82.0672   14.4998 C.3     1  UNL1        0.0721
     25 N          62.9259   83.0754   13.9503 N.3     1  UNL1       -0.2738
@<TRIPOS>BOND
     1    21    20    1
     2    21    22    1
     3    22    23    1
     4    23    24    1
     5    24    25    1
     6    25    19    1
     7    19    18    1
     8    18    17    1
     9    17    16    1
    10    16     1    1
    11     1     2   ar
    12     2     3   ar
    13     3     4   ar
    14     4     7    1
    15     7     8    2
    16     8     9    1
    17     9    10   am
    18    10    11    2
    19    10    12    1
    20    12    13    1
    21    14    13    1
    22     4     5   ar
    23     5     6   ar
    24    25    21    1
    25     6     1   ar
    26    14     7    1
    27    14    12    1
    28     9    15    1
@<TRIPOS>MOLECULE
*****
 25 28 0 0 0
SMALL
GASTEIGER

@<TRIPOS>ATOM
      1 C          63.7878   89.4431   13.3948 C.ar    1  UNL1        0.1386
      2 C          64.3725   88.7812   14.6073 C.ar    1  UNL1        0.0369
      3 C          64.3268   87.2880   14.7421 C.ar    1  UNL1        0.0043
      4 C          63.6963   86.4566   13.6643 C.ar    1  UNL1        0.0152
      5 C          63.1117   87.1185   12.4519 C.ar    1  UNL1        0.0043
      6 C          63.1574   88.6117   12.3171 C.ar    1  UNL1        0.0369
      7 C          63.6506   84.9634   13.7991 C.2     1  UNL1        0.0763
      8 N          63.2914   84.3397   15.1152 N.2     1  UNL1       -0.1836
      9 N          63.2457   82.8465   15.2499 N.am    1  UNL1       -0.2062
     10 C          63.5592   81.9769   14.0687 C.2     1  UNL1        0.2410
     11 O          63.5134   80.4837   14.2034 O.2     1  UNL1       -0.2734
     12 C          63.9184   82.6005   12.7525 C.3     1  UNL1        0.0841
     13 C          64.2776   83.2241   11.4365 C.3     1  UNL1        0.0160
     14 C          63.9641   84.0937   12.6177 C.3     1  UNL1        0.0509
     15 H          63.0100   82.4372   16.1137 H       1  UNL1        0.1772
     16 O          63.8335   90.9363   13.2600 O.3     1  UNL1       -0.4754
     17 C          65.1543   91.6465   13.2297 C.3     1  UNL1        0.2068
     18 C          65.5735   92.3984   12.0013 C.3     1  UNL1        0.0646
     19 C          66.5742   93.5108   12.1079 C.3     1  UNL1        0.0759
     20 C          68.1613   92.5297    9.4305 C.3     1  UNL1        0.0173
     21 C          67.6162   93.9050    9.6780 C.3     1  UNL1        0.0576
     22 C          67.7048   95.0709    8.7384 C.3     1  UNL1        0.0174
     23 C          67.0300   96.2423    9.3883 C.3     1  UNL1        0.0187
     24 C          66.5244   95.8005   10.7296 C.3     1  UNL1        0.0721
     25 N          66.8866   94.3560   10.9087 N.3     1  UNL1       -0.2738
@<TRIPOS>BOND
     1    21    20    1
     2    21    22    1
     3    22    23    1
     4    23    24    1
     5    24    25    1
     6    25    19    1
     7    19    18    1
     8    18    17    1
     9    17    16    1
    10    16     1    1
    11     1     2   ar
    12     2     3   ar
    13     3     4   ar
    14     4     7    1
    15     7     8    2
    16     8     9    1
    17     9    10   am
    18    10    11    2
    19    10    12    1
    20    12    13    1
    21    14    13    1
    22     4     5   ar
    23     5     6   ar
    24    25    21    1
    25     6     1   ar
    26    14     7    1
    27    14    12    1
    28     9    15    1
@<TRIPOS>MOLECULE
*****
 25 28 0 0 0
SMALL
GASTEIGER

@<TRIPOS>ATOM
      1 C          63.3217   87.9596   16.2325 C.ar    1  UNL1        0.1386
      2 C          64.1236   87.7421   14.9836 C.ar    1  UNL1        0.0369
      3 C          64.6928   88.9163   14.2438 C.ar    1  UNL1        0.0043
      4 C          64.4601   90.3080   14.7529 C.ar    1  UNL1        0.0152
      5 C          63.6582   90.5254   16.0018 C.ar    1  UNL1        0.0043
      6 C          63.0890   89.3512   16.7416 C.ar    1  UNL1        0.0369
      7 C          65.0293   91.4822   14.0131 C.2     1  UNL1        0.0763
      8 N          64.5391   91.8088   12.6336 N.2     1  UNL1       -0.1836
      9 N          65.1083   92.9830   11.8939 N.am    1  UNL1       -0.2062
     10 C          66.1676   93.8306   12.5336 C.2     1  UNL1        0.2410
     11 O          66.7368   95.0048   11.7938 O.2     1  UNL1       -0.2734
     12 C          66.6578   93.5041   13.9132 C.3     1  UNL1        0.0841
     13 C          67.1480   93.1775   15.2927 C.3     1  UNL1        0.0160
     14 C          66.0886   92.3299   14.6529 C.3     1  UNL1        0.0509
     15 H          64.7866   93.1973   10.9884 H       1  UNL1        0.1772
     16 O          62.7525   86.7854   16.9723 O.3     1  UNL1       -0.4754
     17 C          63.1625   85.3922   16.5970 C.3     1  UNL1        0.2068
     18 C          62.3075   84.5837   15.6667 C.3     1  UNL1        0.0646
     19 C          62.7957   84.2668   14.2843 C.3     1  UNL1        0.0759
     20 C          64.2225   83.1125   11.5858 C.3     1  UNL1        0.0173
     21 C          63.3159   82.3444   12.5012 C.3     1  UNL1        0.0576
     22 C          62.9059   80.9109   12.3372 C.3     1  UNL1        0.0174
     23 C          61.9967   80.5555   13.4760 C.3     1  UNL1        0.0187
     24 C          61.8448   81.7693   14.3440 C.3     1  UNL1        0.0721
     25 N          62.6601   82.8750   13.7416 N.3     1  UNL1       -0.2738
@<TRIPOS>BOND
     1    21    20    1
     2    21    22    1
     3    22    23    1
     4    23    24    1
     5    24    25    1
     6    25    19    1
     7    19    18    1
     8    18    17    1
     9    17    16    1
    10    16     1    1
    11     1     2   ar
    12     2     3   ar
    13     3     4   ar
    14     4     7    1
    15     7     8    2
    16     8     9    1
    17     9    10   am
    18    10    11    2
    19    10    12    1
    20    12    13    1
    21    14    13    1
    22     4     5   ar
    23     5     6   ar
    24    25    21    1
    25     6     1   ar
    26    14     7    1
    27    14    12    1
    28     9    15    1
@<TRIPOS>MOLECULE
*****
 25 28 0 0 0
SMALL
GASTEIGER

@<TRIPOS>ATOM
      1 C          63.4513   84.0210   11.5966 C.ar    1  UNL1        0.1386
      2 C          63.5918   83.9957   10.1034 C.ar    1  UNL1        0.0369
      3 C          62.7606   84.9130    9.2563 C.ar    1  UNL1        0.0043
      4 C          61.7889   85.8557    9.9024 C.ar    1  UNL1        0.0152
      5 C          61.6486   85.8810   11.3956 C.ar    1  UNL1        0.0043
      6 C          62.4798   84.9636   12.2427 C.ar    1  UNL1        0.0369
      7 C          60.9577   86.7731    9.0553 C.2     1  UNL1        0.0763
      8 N          60.1614   86.2207    7.9105 N.2     1  UNL1       -0.1836
      9 N          59.3302   87.1380    7.0634 N.am    1  UNL1       -0.2062
     10 C          59.2953   88.6077    7.3611 C.2     1  UNL1        0.2410
     11 O          58.4641   89.5251    6.5140 O.2     1  UNL1       -0.2734
     12 C          60.0917   89.1602    8.5061 C.3     1  UNL1        0.0841
     13 C          60.8880   89.7125    9.6509 C.3     1  UNL1        0.0160
     14 C          60.9229   88.2428    9.3532 C.3     1  UNL1        0.0509
     15 H          58.8076   86.7755    6.3119 H       1  UNL1        0.1772
     16 O          64.2825   83.1037   12.4437 O.3     1  UNL1       -0.4754
     17 C          64.2837   83.2563   13.9359 C.3     1  UNL1        0.2068
     18 C          64.7671   84.5323   14.5589 C.3     1  UNL1        0.0646
     19 C          63.9985   85.1543   15.6869 C.3     1  UNL1        0.0759
     20 C          62.5810   86.8260   18.1047 C.3     1  UNL1        0.0173
     21 C          63.1805   87.4121   16.8610 C.3     1  UNL1        0.0576
     22 C          63.2338   88.8696   16.5101 C.3     1  UNL1        0.0174
     23 C          63.9183   89.0019   15.1819 C.3     1  UNL1        0.0187
     24 C          64.2881   87.6263   14.7120 C.3     1  UNL1        0.0721
     25 N          63.8321   86.6437   15.7496 N.3     1  UNL1       -0.2738
@<TRIPOS>BOND
     1    21    20    1
     2    21    22    1
     3    22    23    1
     4    23    24    1
     5    24    25    1
     6    25    19    1
     7    19    18    1
     8    18    17    1
     9    17    16    1
    10    16     1    1
    11     1     2   ar
    12     2     3   ar
    13     3     4   ar
    14     4     7    1
    15     7     8    2
    16     8     9    1
    17     9    10   am
    18    10    11    2
    19    10    12    1
    20    12    13    1
    21    14    13    1
    22     4     5   ar
    23     5     6   ar
    24    25    21    1
    25     6     1   ar
    26    14     7    1
    27    14    12    1
    28     9    15    1
@<TRIPOS>MOLECULE
*****
 25 28 0 0 0
SMALL
GASTEIGER

@<TRIPOS>ATOM
      1 C          63.8370   83.2440   14.5731 C.ar    1  UNL1        0.1386
      2 C          62.6625   83.7760   15.3397 C.ar    1  UNL1        0.0369
      3 C          62.5995   85.2304   15.7014 C.ar    1  UNL1        0.0043
      4 C          63.7110   86.1527   15.2965 C.ar    1  UNL1        0.0152
      5 C          64.8854   85.6207   14.5299 C.ar    1  UNL1        0.0043
      6 C          64.9484   84.1664   14.1682 C.ar    1  UNL1        0.0369
      7 C          63.6480   87.6071   15.6581 C.2     1  UNL1        0.0763
      8 N          63.1519   88.0226   17.0114 N.2     1  UNL1       -0.1836
      9 N          63.0889   89.4770   17.3730 N.am    1  UNL1       -0.2062
     10 C          63.5220   90.5159   16.3815 C.2     1  UNL1        0.2410
     11 O          63.4590   91.9703   16.7432 O.2     1  UNL1       -0.2734
     12 C          64.0181   90.1004   15.0282 C.3     1  UNL1        0.0841
     13 C          64.5141   89.6849   13.6750 C.3     1  UNL1        0.0160
     14 C          64.0811   88.6460   14.6665 C.3     1  UNL1        0.0509
     15 H          62.7633   89.7497   18.2612 H       1  UNL1        0.1772
     16 O          63.9000   81.7896   14.2114 O.3     1  UNL1       -0.4754
     17 C          63.8221   81.3704   12.7733 C.3     1  UNL1        0.2068
     18 C          62.9396   82.1204   11.8201 C.3     1  UNL1        0.0646
     19 C          63.5265   83.1668   10.9198 C.3     1  UNL1        0.0759
     20 C          63.1346   84.8515    8.1526 C.3     1  UNL1        0.0173
     21 C          62.6786   85.2779    9.5164 C.3     1  UNL1        0.0576
     22 C          61.9622   86.5535    9.8478 C.3     1  UNL1        0.0174
     23 C          61.6997   86.5674   11.3246 C.3     1  UNL1        0.0187
     24 C          62.2537   85.3005   11.9059 C.3     1  UNL1        0.0721
     25 N          62.8587   84.5035   10.7884 N.3     1  UNL1       -0.2738
@<TRIPOS>BOND
     1    21    20    1
     2    21    22    1
     3    22    23    1
     4    23    24    1
     5    24    25    1
     6    25    19    1
     7    19    18    1
     8    18    17    1
     9    17    16    1
    10    16     1    1
    11     1     2   ar
    12     2     3   ar
    13     3     4   ar
    14     4     7    1
    15     7     8    2
    16     8     9    1
    17     9    10   am
    18    10    11    2
    19    10    12    1
    20    12    13    1
    21    14    13    1
    22     4     5   ar
    23     5     6   ar
    24    25    21    1
    25     6     1   ar
    26    14     7    1
    27    14    12    1
    28     9    15    1
@<TRIPOS>MOLECULE
*****
 25 28 0 0 0
SMALL
GASTEIGER

@<TRIPOS>ATOM
      1 C          62.8161   90.8840   10.9160 C.ar    1  UNL1        0.1386
      2 C          62.8883   90.2962   12.2942 C.ar    1  UNL1        0.0369
      3 C          64.0230   90.6589   13.2057 C.ar    1  UNL1        0.0043
      4 C          65.0857   91.6092   12.7390 C.ar    1  UNL1        0.0152
      5 C          65.0135   92.1969   11.3608 C.ar    1  UNL1        0.0043
      6 C          63.8787   91.8343   10.4493 C.ar    1  UNL1        0.0369
      7 C          66.2204   91.9718   13.6505 C.2     1  UNL1        0.0763
      8 N          67.6206   92.0352   13.1164 N.2     1  UNL1       -0.1836
      9 N          68.7554   92.3979   14.0279 N.am    1  UNL1       -0.2062
     10 C          68.4899   92.6971   15.4735 C.2     1  UNL1        0.2410
     11 O          69.6247   93.0597   16.3850 O.2     1  UNL1       -0.2734
     12 C          67.0897   92.6337   16.0077 C.3     1  UNL1        0.0841
     13 C          65.6894   92.5703   16.5419 C.3     1  UNL1        0.0160
     14 C          65.9549   92.2711   15.0962 C.3     1  UNL1        0.0509
     15 H          69.6744   92.4395   13.6773 H       1  UNL1        0.1772
     16 O          61.6814   90.5213   10.0045 O.3     1  UNL1       -0.4754
     17 C          61.4104   89.0821    9.6802 C.3     1  UNL1        0.2068
     18 C          60.6588   88.2227   10.6530 C.3     1  UNL1        0.0646
     19 C          60.7551   86.7285   10.5638 C.3     1  UNL1        0.0759
     20 C          59.2459   86.4806    7.6811 C.3     1  UNL1        0.0173
     21 C          60.6192   85.9713    8.0039 C.3     1  UNL1        0.0576
     22 C          61.5402   85.2586    7.0583 C.3     1  UNL1        0.0174
     23 C          62.8030   84.9321    7.7990 C.3     1  UNL1        0.0187
     24 C          62.6626   85.4430    9.2023 C.3     1  UNL1        0.0721
     25 N          61.3130   86.0853    9.3290 N.3     1  UNL1       -0.2738
@<TRIPOS>BOND
     1    21    20    1
     2    21    22    1
     3    22    23    1
     4    23    24    1
     5    24    25    1
     6    25    19    1
     7    19    18    1
     8    18    17    1
     9    17    16    1
    10    16     1    1
    11     1     2   ar
    12     2     3   ar
    13     3     4   ar
    14     4     7    1
    15     7     8    2
    16     8     9    1
    17     9    10   am
    18    10    11    2
    19    10    12    1
    20    12    13    1
    21    14    13    1
    22     4     5   ar
    23     5     6   ar
    24    25    21    1
    25     6     1   ar
    26    14     7    1
    27    14    12    1
    28     9    15    1
@<TRIPOS>MOLECULE
*****
 25 28 0 0 0
SMALL
GASTEIGER

@<TRIPOS>ATOM
      1 C          62.3508   89.7404   10.5141 C.ar    1  UNL1        0.1386
      2 C          62.6317   89.1677   11.8718 C.ar    1  UNL1        0.0369
      3 C          63.5950   89.8572   12.7920 C.ar    1  UNL1        0.0043
      4 C          64.2773   91.1194   12.3545 C.ar    1  UNL1        0.0152
      5 C          63.9963   91.6921   10.9969 C.ar    1  UNL1        0.0043
      6 C          63.0331   91.0025   10.0767 C.ar    1  UNL1        0.0369
      7 C          65.2405   91.8090   13.2747 C.2     1  UNL1        0.0763
      8 N          66.4473   92.5018   12.7148 N.2     1  UNL1       -0.1836
      9 N          67.4106   93.1914   13.6350 N.am    1  UNL1       -0.2062
     10 C          67.1670   93.1881   15.1150 C.2     1  UNL1        0.2410
     11 O          68.1302   93.8776   16.0352 O.2     1  UNL1       -0.2734
     12 C          65.9601   92.4952   15.6750 C.3     1  UNL1        0.0841
     13 C          64.7533   91.8023   16.2348 C.3     1  UNL1        0.0160
     14 C          64.9969   91.8056   14.7548 C.3     1  UNL1        0.0509
     15 H          68.2026   93.6461   13.2675 H       1  UNL1        0.1772
     16 O          61.3876   89.0508    9.5940 O.3     1  UNL1       -0.4754
     17 C          61.2036   87.5646    9.6777 C.3     1  UNL1        0.2068
     18 C          62.3182   86.6467    9.2713 C.3     1  UNL1        0.0646
     19 C          62.2988   85.2087    9.6975 C.3     1  UNL1        0.0759
     20 C          64.1669   82.5897   10.2456 C.3     1  UNL1        0.0173
     21 C          63.7508   83.6053   11.2679 C.3     1  UNL1        0.0576
     22 C          64.1203   83.5955   12.7217 C.3     1  UNL1        0.0174
     23 C          63.4900   84.7933   13.3682 C.3     1  UNL1        0.0187
     24 C          62.7310   85.5434   12.3141 C.3     1  UNL1        0.0721
     25 N          62.8921   84.8092   11.0160 N.3     1  UNL1       -0.2738
@<TRIPOS>BOND
     1    21    20    1
     2    21    22    1
     3    22    23    1
     4    23    24    1
     5    24    25    1
     6    25    19    1
     7    19    18    1
     8    18    17    1
     9    17    16    1
    10    16     1    1
    11     1     2   ar
    12     2     3   ar
    13     3     4   ar
    14     4     7    1
    15     7     8    2
    16     8     9    1
    17     9    10   am
    18    10    11    2
    19    10    12    1
    20    12    13    1
    21    14    13    1
    22     4     5   ar
    23     5     6   ar
    24    25    21    1
    25     6     1   ar
    26    14     7    1
    27    14    12    1
    28     9    15    1
@<TRIPOS>MOLECULE
*****
 25 28 0 0 0
SMALL
GASTEIGER

@<TRIPOS>ATOM
      1 C          63.3916   86.3395   16.1545 C.ar    1  UNL1        0.1386
      2 C          64.2856   86.2594   14.9526 C.ar    1  UNL1        0.0369
      3 C          64.1886   85.0864   14.0227 C.ar    1  UNL1        0.0043
      4 C          63.1977   83.9936   14.2946 C.ar    1  UNL1        0.0152
      5 C          62.3037   84.0738   15.4964 C.ar    1  UNL1        0.0043
      6 C          62.4007   85.2467   16.4263 C.ar    1  UNL1        0.0369
      7 C          63.1007   82.8207   13.3646 C.2     1  UNL1        0.0763
      8 N          62.5247   81.5238   13.8506 N.2     1  UNL1       -0.1836
      9 N          62.4277   80.3509   12.9207 N.am    1  UNL1       -0.2062
     10 C          62.9068   80.4748   11.5047 C.2     1  UNL1        0.2410
     11 O          62.8099   79.3019   10.5747 O.2     1  UNL1       -0.2734
     12 C          63.4830   81.7717   11.0186 C.3     1  UNL1        0.0841
     13 C          64.0590   83.0686   10.5326 C.3     1  UNL1        0.0160
     14 C          63.5799   82.9447   11.9486 C.3     1  UNL1        0.0509
     15 H          62.0496   79.4997   13.2397 H       1  UNL1        0.1772
     16 O          63.4885   87.5124   17.0844 O.3     1  UNL1       -0.4754
     17 C          63.0615   88.8738   16.6216 C.3     1  UNL1        0.2068
     18 C          63.7887   89.5451   15.4944 C.3     1  UNL1        0.0646
     19 C          64.0081   91.0287   15.5214 C.3     1  UNL1        0.0759
     20 C          63.4679   90.9603   12.3038 C.3     1  UNL1        0.0173
     21 C          64.6090   91.6490   12.9917 C.3     1  UNL1        0.0576
     22 C          65.7023   92.4273   12.3216 C.3     1  UNL1        0.0174
     23 C          66.6263   92.9398   13.3863 C.3     1  UNL1        0.0187
     24 C          66.1041   92.4782   14.7146 C.3     1  UNL1        0.0721
     25 N          64.8574   91.6805   14.4708 N.3     1  UNL1       -0.2738
@<TRIPOS>BOND
     1    21    20    1
     2    21    22    1
     3    22    23    1
     4    23    24    1
     5    24    25    1
     6    25    19    1
     7    19    18    1
     8    18    17    1
     9    17    16    1
    10    16     1    1
    11     1     2   ar
    12     2     3   ar
    13     3     4   ar
    14     4     7    1
    15     7     8    2
    16     8     9    1
    17     9    10   am
    18    10    11    2
    19    10    12    1
    20    12    13    1
    21    14    13    1
    22     4     5   ar
    23     5     6   ar
    24    25    21    1
    25     6     1   ar
    26    14     7    1
    27    14    12    1
    28     9    15    1
