@<TRIPOS>MOLECULE
*****
 22 24 0 0 0
SMALL
GASTEIGER

@<TRIPOS>ATOM
      1 C          62.6683   89.5128   10.5498 C.3     1  UNL1        0.1476
      2 C          62.4653   89.1062   11.9793 C.3     1  UNL1        0.1744
      3 O          62.0685   87.6598   11.9980 O.3     1  UNL1       -0.3268
      4 C          62.0262   87.1725   10.5800 C.3     1  UNL1        0.2313
      5 O          62.3968   88.3177    9.6850 O.3     1  UNL1       -0.3293
      6 C          61.9008   86.4124    9.2929 C.ar    1  UNL1        0.0410
      7 C          63.0679   85.6306    8.7669 C.ar    1  UNL1        0.0022
      8 C          62.9426   84.8706    7.4798 C.ar    1  UNL1        0.0113
      9 C          61.6501   84.8924    6.7187 C.ar    1  UNL1        0.0585
     10 CL         61.5248   84.1323    5.4316 Cl      1  UNL1       -0.0822
     11 C          60.4831   85.6742    7.2448 C.ar    1  UNL1        0.0226
     12 C          60.6084   86.4342    8.5318 C.ar    1  UNL1        0.0591
     13 CL         59.4413   87.2160    9.0579 Cl      1  UNL1       -0.0824
     14 C          63.0718   90.8753   10.0695 C.3     1  UNL1        0.0323
     15 C          65.1186   92.3961   10.5673 C.3     1  UNL1        0.0001
     16 C          63.8045   91.8079   10.9879 C.3     1  UNL1        0.0026
     17 C          61.6293   85.8684   11.2060 C.3     1  UNL1        0.1897
     18 N          62.6191   85.1004   12.0308 N.ar    1  UNL1       -0.2246
     19 C          63.1971   83.7585   11.6912 C.ar    1  UNL1        0.1974
     20 N          64.1400   83.3682   12.7906 N.ar    1  UNL1       -0.2007
     21 C          64.1448   84.4689   13.8096 C.ar    1  UNL1        0.2210
     22 N          63.2049   85.5394   13.3400 N.ar    1  UNL1       -0.1450
@<TRIPOS>BOND
     1    15    16    1
     2    16    14    1
     3    14     1    1
     4     1     2    1
     5     2     3    1
     6     3     4    1
     7     4    17    1
     8    17    18    1
     9    18    19   ar
    10    19    20   ar
    11    20    21   ar
    12    21    22   ar
    13     4     6    1
    14     6     7   ar
    15     7     8   ar
    16     8     9   ar
    17     9    10    1
    18     9    11   ar
    19    11    12   ar
    20    12    13    1
    21     4     5    1
    22     5     1    1
    23    22    18   ar
    24    12     6   ar
@<TRIPOS>MOLECULE
*****
 22 24 0 0 0
SMALL
GASTEIGER

@<TRIPOS>ATOM
      1 C          63.8461   91.3744   11.0966 C.3     1  UNL1        0.1476
      2 C          64.0263   91.2577   12.5811 C.3     1  UNL1        0.1744
      3 O          65.0015   92.3119   13.0140 O.3     1  UNL1       -0.3268
      4 C          65.4241   93.0802   11.7970 C.3     1  UNL1        0.2313
      5 O          64.7100   92.5009   10.6120 O.3     1  UNL1       -0.3293
      6 C          66.0221   94.0104   10.7834 C.ar    1  UNL1        0.0410
      7 C          65.4720   95.3963   10.6207 C.ar    1  UNL1        0.0022
      8 C          66.0700   96.3264    9.6072 C.ar    1  UNL1        0.0113
      9 C          67.2182   95.8705    8.7564 C.ar    1  UNL1        0.0585
     10 CL         67.8163   96.8007    7.7428 Cl      1  UNL1       -0.0822
     11 C          67.7684   94.4846    8.9191 C.ar    1  UNL1        0.0226
     12 C          67.1703   93.5545    9.9326 C.ar    1  UNL1        0.0591
     13 CL         67.7205   92.1685   10.0954 Cl      1  UNL1       -0.0824
     14 C          62.9579   90.5156   10.2460 C.3     1  UNL1        0.0323
     15 C          62.1171   88.0812    9.9042 C.3     1  UNL1        0.0001
     16 C          62.3774   89.2510   10.8062 C.3     1  UNL1        0.0026
     17 C          66.2632   93.8541   12.7701 C.3     1  UNL1        0.1897
     18 N          66.9548   93.1429   13.8953 N.ar    1  UNL1       -0.2246
     19 C          67.8376   91.9371   13.7660 C.ar    1  UNL1        0.1974
     20 N          68.3134   91.5617   15.1381 N.ar    1  UNL1       -0.2007
     21 C          67.7247   92.5354   16.1154 C.ar    1  UNL1        0.2210
     22 N          66.8850   93.5127   15.3473 N.ar    1  UNL1       -0.1450
@<TRIPOS>BOND
     1    15    16    1
     2    16    14    1
     3    14     1    1
     4     1     2    1
     5     2     3    1
     6     3     4    1
     7     4    17    1
     8    17    18    1
     9    18    19   ar
    10    19    20   ar
    11    20    21   ar
    12    21    22   ar
    13     4     6    1
    14     6     7   ar
    15     7     8   ar
    16     8     9   ar
    17     9    10    1
    18     9    11   ar
    19    11    12   ar
    20    12    13    1
    21     4     5    1
    22     5     1    1
    23    22    18   ar
    24    12     6   ar
@<TRIPOS>MOLECULE
*****
 22 24 0 0 0
SMALL
GASTEIGER

@<TRIPOS>ATOM
      1 C          62.0079   86.3042   11.0062 C.3     1  UNL1        0.1476
      2 C          62.7196   87.3175   11.8527 C.3     1  UNL1        0.1744
      3 O          63.3451   86.5973   13.0103 O.3     1  UNL1       -0.3268
      4 C          63.0199   85.1389   12.8793 C.3     1  UNL1        0.2313
      5 O          62.1934   84.9577   11.6407 O.3     1  UNL1       -0.3293
      6 C          62.8605   83.6534   13.0131 C.ar    1  UNL1        0.0410
      7 C          61.9502   83.0882   14.0628 C.ar    1  UNL1        0.0022
      8 C          61.7909   81.6028   14.1966 C.ar    1  UNL1        0.0113
      9 C          62.5419   80.6824   13.2806 C.ar    1  UNL1        0.0585
     10 CL         62.3825   79.1969   13.4145 Cl      1  UNL1       -0.0822
     11 C          63.4522   81.2475   12.2309 C.ar    1  UNL1        0.0226
     12 C          63.6115   82.7330   12.0972 C.ar    1  UNL1        0.0591
     13 CL         64.5219   83.2982   11.0474 Cl      1  UNL1       -0.0824
     14 C          61.2445   86.5875    9.7464 C.3     1  UNL1        0.0323
     15 C          63.0459   85.3401    8.3504 C.3     1  UNL1        0.0001
     16 C          61.7033   86.0024    8.4437 C.3     1  UNL1        0.0026
     17 C          63.8130   85.0095   14.1458 C.3     1  UNL1        0.1897
     18 N          63.3309   85.6699   15.4034 N.ar    1  UNL1       -0.2246
     19 C          62.4144   85.0615   16.4232 C.ar    1  UNL1        0.1974
     20 N          62.1977   86.0702   17.5120 N.ar    1  UNL1       -0.2007
     21 C          62.9802   87.3020   17.1652 C.ar    1  UNL1        0.2210
     22 N          63.6806   87.0546   15.8620 N.ar    1  UNL1       -0.1450
@<TRIPOS>BOND
     1    15    16    1
     2    16    14    1
     3    14     1    1
     4     1     2    1
     5     2     3    1
     6     3     4    1
     7     4    17    1
     8    17    18    1
     9    18    19   ar
    10    19    20   ar
    11    20    21   ar
    12    21    22   ar
    13     4     6    1
    14     6     7   ar
    15     7     8   ar
    16     8     9   ar
    17     9    10    1
    18     9    11   ar
    19    11    12   ar
    20    12    13    1
    21     4     5    1
    22     5     1    1
    23    22    18   ar
    24    12     6   ar
@<TRIPOS>MOLECULE
*****
 22 24 0 0 0
SMALL
GASTEIGER

@<TRIPOS>ATOM
      1 C          64.0985   86.2349   14.0751 C.3     1  UNL1        0.1476
      2 C          64.4523   84.8200   14.4255 C.3     1  UNL1        0.1744
      3 O          63.8934   83.9248   13.3596 O.3     1  UNL1       -0.3268
      4 C          63.1941   84.7864   12.3504 C.3     1  UNL1        0.2313
      5 O          63.3209   86.2142   12.7926 O.3     1  UNL1       -0.3293
      6 C          62.4351   85.3753   11.1983 C.ar    1  UNL1        0.0410
      7 C          61.3027   86.3253   11.4534 C.ar    1  UNL1        0.0022
      8 C          60.5437   86.9141   10.3014 C.ar    1  UNL1        0.0113
      9 C          60.9173   86.5530    8.8942 C.ar    1  UNL1        0.0585
     10 CL         60.1583   87.1419    7.7422 Cl      1  UNL1       -0.0822
     11 C          62.0497   85.6030    8.6391 C.ar    1  UNL1        0.0226
     12 C          62.8086   85.0142    9.7912 C.ar    1  UNL1        0.0591
     13 CL         63.9412   84.0642    9.5361 Cl      1  UNL1       -0.0824
     14 C          64.4590   87.4561   14.8680 C.3     1  UNL1        0.0323
     15 C          63.8481   89.9671   15.1362 C.3     1  UNL1        0.0001
     16 C          64.2760   88.8196   14.2701 C.3     1  UNL1        0.0026
     17 C          62.9087   83.4818   11.6674 C.3     1  UNL1        0.1897
     18 N          62.5273   82.2787   12.4778 N.ar    1  UNL1       -0.2246
     19 C          62.8700   80.8542   12.1563 C.ar    1  UNL1        0.1974
     20 N          62.2907   79.9838   13.2319 N.ar    1  UNL1       -0.2007
     21 C          61.5899   80.8704   14.2182 C.ar    1  UNL1        0.2210
     22 N          61.7361   82.2887   13.7521 N.ar    1  UNL1       -0.1450
@<TRIPOS>BOND
     1    15    16    1
     2    16    14    1
     3    14     1    1
     4     1     2    1
     5     2     3    1
     6     3     4    1
     7     4    17    1
     8    17    18    1
     9    18    19   ar
    10    19    20   ar
    11    20    21   ar
    12    21    22   ar
    13     4     6    1
    14     6     7   ar
    15     7     8   ar
    16     8     9   ar
    17     9    10    1
    18     9    11   ar
    19    11    12   ar
    20    12    13    1
    21     4     5    1
    22     5     1    1
    23    22    18   ar
    24    12     6   ar
@<TRIPOS>MOLECULE
*****
 22 24 0 0 0
SMALL
GASTEIGER

@<TRIPOS>ATOM
      1 C          62.8906   90.5046   11.8358 C.3     1  UNL1        0.1476
      2 C          64.0807   91.4078   11.7022 C.3     1  UNL1        0.1744
      3 O          64.9881   91.1547   12.8695 O.3     1  UNL1       -0.3268
      4 C          64.3588   90.0951   13.7246 C.3     1  UNL1        0.2313
      5 O          63.0625   89.6933   13.0858 O.3     1  UNL1       -0.3293
      6 C          63.9842   89.0749   14.7584 C.ar    1  UNL1        0.0410
      7 C          64.1997   87.6159   14.4849 C.ar    1  UNL1        0.0022
      8 C          63.8251   86.5957   15.5188 C.ar    1  UNL1        0.0113
      9 C          63.2350   87.0346   16.8262 C.ar    1  UNL1        0.0585
     10 CL         62.8604   86.0143   17.8600 Cl      1  UNL1       -0.0822
     11 C          63.0195   88.4935   17.0997 C.ar    1  UNL1        0.0226
     12 C          63.3941   89.5137   16.0658 C.ar    1  UNL1        0.0591
     13 CL         63.1786   90.9728   16.3393 Cl      1  UNL1       -0.0824
     14 C          61.7320   90.4264   10.8863 C.3     1  UNL1        0.0323
     15 C          60.3219   89.0402    9.2011 C.3     1  UNL1        0.0001
     16 C          61.5957   89.2509    9.9646 C.3     1  UNL1        0.0026
     17 C          65.5768   90.2836   14.5795 C.3     1  UNL1        0.1897
     18 N          66.3503   91.5669   14.5104 N.ar    1  UNL1       -0.2246
     19 C          67.7854   91.7104   14.0979 C.ar    1  UNL1        0.1974
     20 N          68.1465   93.1642   14.1742 N.ar    1  UNL1       -0.2007
     21 C          66.9347   93.9194   14.6338 C.ar    1  UNL1        0.2210
     22 N          65.8246   92.9322   14.8416 N.ar    1  UNL1       -0.1450
@<TRIPOS>BOND
     1    15    16    1
     2    16    14    1
     3    14     1    1
     4     1     2    1
     5     2     3    1
     6     3     4    1
     7     4    17    1
     8    17    18    1
     9    18    19   ar
    10    19    20   ar
    11    20    21   ar
    12    21    22   ar
    13     4     6    1
    14     6     7   ar
    15     7     8   ar
    16     8     9   ar
    17     9    10    1
    18     9    11   ar
    19    11    12   ar
    20    12    13    1
    21     4     5    1
    22     5     1    1
    23    22    18   ar
    24    12     6   ar
@<TRIPOS>MOLECULE
*****
 22 24 0 0 0
SMALL
GASTEIGER

@<TRIPOS>ATOM
      1 C          63.4288   89.2533   12.7793 C.3     1  UNL1        0.1476
      2 C          64.0012   88.2369   13.7223 C.3     1  UNL1        0.1744
      3 O          63.5742   86.8775   13.2538 O.3     1  UNL1       -0.3268
      4 C          62.7378   87.0537   12.0212 C.3     1  UNL1        0.2313
      5 O          62.6479   88.5219   11.7279 O.3     1  UNL1       -0.3293
      6 C          61.8827   86.9168   10.7963 C.ar    1  UNL1        0.0410
      7 C          62.3733   86.1191    9.6245 C.ar    1  UNL1        0.0022
      8 C          61.5183   85.9823    8.3997 C.ar    1  UNL1        0.0113
      9 C          60.1727   86.6432    8.3467 C.ar    1  UNL1        0.0585
     10 CL         59.3177   86.5063    7.1218 Cl      1  UNL1       -0.0822
     11 C          59.6822   87.4408    9.5184 C.ar    1  UNL1        0.0226
     12 C          60.5372   87.5777   10.7432 C.ar    1  UNL1        0.0591
     13 CL         60.0467   88.3754   11.9151 Cl      1  UNL1       -0.0824
     14 C          63.6061   90.7399   12.8714 C.3     1  UNL1        0.0323
     15 C          63.5482   91.5213   10.3943 C.3     1  UNL1        0.0001
     16 C          64.2260   91.4934   11.7321 C.3     1  UNL1        0.0026
     17 C          62.6488   85.5568   12.0584 C.3     1  UNL1        0.1897
     18 N          62.9692   84.8177   13.3237 N.ar    1  UNL1       -0.2246
     19 C          64.2141   84.0243   13.5903 C.ar    1  UNL1        0.1974
     20 N          64.1153   83.4585   14.9760 N.ar    1  UNL1       -0.2007
     21 C          62.8094   83.9021   15.5658 C.ar    1  UNL1        0.2210
     22 N          62.1011   84.7421   14.5446 N.ar    1  UNL1       -0.1450
@<TRIPOS>BOND
     1    15    16    1
     2    16    14    1
     3    14     1    1
     4     1     2    1
     5     2     3    1
     6     3     4    1
     7     4    17    1
     8    17    18    1
     9    18    19   ar
    10    19    20   ar
    11    20    21   ar
    12    21    22   ar
    13     4     6    1
    14     6     7   ar
    15     7     8   ar
    16     8     9   ar
    17     9    10    1
    18     9    11   ar
    19    11    12   ar
    20    12    13    1
    21     4     5    1
    22     5     1    1
    23    22    18   ar
    24    12     6   ar
@<TRIPOS>MOLECULE
*****
 22 24 0 0 0
SMALL
GASTEIGER

@<TRIPOS>ATOM
      1 C          67.4948   92.1115   13.9239 C.3     1  UNL1        0.1476
      2 C          66.2161   91.3498   14.1105 C.3     1  UNL1        0.1744
      3 O          65.2667   91.7650   13.0259 O.3     1  UNL1       -0.3268
      4 C          65.9587   92.7833   12.1690 C.3     1  UNL1        0.2313
      5 O          67.3357   92.9974   12.7240 O.3     1  UNL1       -0.3293
      6 C          66.3811   93.8014   11.1516 C.ar    1  UNL1        0.0410
      7 C          65.9199   95.2231   11.2770 C.ar    1  UNL1        0.0022
      8 C          66.3424   96.2411   10.2596 C.ar    1  UNL1        0.0113
      9 C          67.2261   95.8373    9.1168 C.ar    1  UNL1        0.0585
     10 CL         67.6486   96.8554    8.0993 Cl      1  UNL1       -0.0822
     11 C          67.6874   94.4155    8.9914 C.ar    1  UNL1        0.0226
     12 C          67.2649   93.3976   10.0088 C.ar    1  UNL1        0.0591
     13 CL         67.7261   91.9757    9.8834 Cl      1  UNL1       -0.0824
     14 C          68.7178   92.0057   14.7858 C.3     1  UNL1        0.0323
     15 C          69.0445   94.2419   16.0676 C.3     1  UNL1        0.0001
     16 C          68.7923   92.7633   16.0783 C.3     1  UNL1        0.0026
     17 C          64.6700   92.7820   11.4014 C.3     1  UNL1        0.1897
     18 N          63.8773   91.5155   11.2688 N.ar    1  UNL1       -0.2246
     19 C          63.2868   90.9735   10.0009 C.ar    1  UNL1        0.1974
     20 N          62.5805   89.6916   10.3294 N.ar    1  UNL1       -0.2007
     21 C          62.7343   89.4414   11.8003 C.ar    1  UNL1        0.2210
     22 N          63.5358   90.5686   12.3809 N.ar    1  UNL1       -0.1450
@<TRIPOS>BOND
     1    15    16    1
     2    16    14    1
     3    14     1    1
     4     1     2    1
     5     2     3    1
     6     3     4    1
     7     4    17    1
     8    17    18    1
     9    18    19   ar
    10    19    20   ar
    11    20    21   ar
    12    21    22   ar
    13     4     6    1
    14     6     7   ar
    15     7     8   ar
    16     8     9   ar
    17     9    10    1
    18     9    11   ar
    19    11    12   ar
    20    12    13    1
    21     4     5    1
    22     5     1    1
    23    22    18   ar
    24    12     6   ar
@<TRIPOS>MOLECULE
*****
 22 24 0 0 0
SMALL
GASTEIGER

@<TRIPOS>ATOM
      1 C          62.8688   89.2127   12.3038 C.3     1  UNL1        0.1476
      2 C          61.5637   89.7696   11.8177 C.3     1  UNL1        0.1744
      3 O          60.8166   88.6663   11.1290 O.3     1  UNL1       -0.3268
      4 C          61.6600   87.4273   11.1895 C.3     1  UNL1        0.2313
      5 O          62.9284   87.7650   11.9155 O.3     1  UNL1       -0.3293
      6 C          62.2647   86.0579   11.0940 C.ar    1  UNL1        0.0410
      7 C          62.3050   85.1699   12.3021 C.ar    1  UNL1        0.0022
      8 C          62.9096   83.8005   12.2066 C.ar    1  UNL1        0.0113
      9 C          63.4740   83.3192   10.9028 C.ar    1  UNL1        0.0585
     10 CL         64.0787   81.9497   10.8073 Cl      1  UNL1       -0.0822
     11 C          63.4338   84.2072    9.6946 C.ar    1  UNL1        0.0226
     12 C          62.8291   85.5766    9.7902 C.ar    1  UNL1        0.0591
     13 CL         62.7888   86.4647    8.5820 Cl      1  UNL1       -0.0824
     14 C          63.9284   89.9704   13.0476 C.3     1  UNL1        0.0323
     15 C          65.5395   92.0052   13.1651 C.3     1  UNL1        0.0001
     16 C          64.3065   91.3548   12.6114 C.3     1  UNL1        0.0026
     17 C          60.5181   86.8033   10.4435 C.3     1  UNL1        0.1897
     18 N          59.9736   87.4673    9.2136 N.ar    1  UNL1       -0.2246
     19 C          58.9184   86.9102    8.3045 C.ar    1  UNL1        0.1974
     20 N          58.6814   87.9035    7.2059 N.ar    1  UNL1       -0.2007
     21 C          59.5900   89.0746    7.4359 C.ar    1  UNL1        0.2210
     22 N          60.3886   88.8050    8.6767 N.ar    1  UNL1       -0.1450
@<TRIPOS>BOND
     1    15    16    1
     2    16    14    1
     3    14     1    1
     4     1     2    1
     5     2     3    1
     6     3     4    1
     7     4    17    1
     8    17    18    1
     9    18    19   ar
    10    19    20   ar
    11    20    21   ar
    12    21    22   ar
    13     4     6    1
    14     6     7   ar
    15     7     8   ar
    16     8     9   ar
    17     9    10    1
    18     9    11   ar
    19    11    12   ar
    20    12    13    1
    21     4     5    1
    22     5     1    1
    23    22    18   ar
    24    12     6   ar
@<TRIPOS>MOLECULE
*****
 22 24 0 0 0
SMALL
GASTEIGER

@<TRIPOS>ATOM
      1 C          61.8616   86.7161   10.8404 C.3     1  UNL1        0.1476
      2 C          62.4236   87.9351   11.5098 C.3     1  UNL1        0.1744
      3 O          63.2433   87.4839   12.6821 O.3     1  UNL1       -0.3268
      4 C          63.1880   85.9860   12.7373 C.3     1  UNL1        0.2313
      5 O          62.3341   85.5114   11.5991 O.3     1  UNL1       -0.3293
      6 C          63.3169   84.5232   13.0439 C.ar    1  UNL1        0.0410
      7 C          64.2444   83.6662   12.2345 C.ar    1  UNL1        0.0022
      8 C          64.3733   82.2036   12.5411 C.ar    1  UNL1        0.0113
      9 C          63.5746   81.5980   13.6570 C.ar    1  UNL1        0.0585
     10 CL         63.7035   80.1353   13.9636 Cl      1  UNL1       -0.0822
     11 C          62.6471   82.4550   14.4664 C.ar    1  UNL1        0.0226
     12 C          62.5182   83.9177   14.1598 C.ar    1  UNL1        0.0591
     13 CL         61.5907   84.7748   14.9692 Cl      1  UNL1       -0.0824
     14 C          60.9817   86.7038    9.6257 C.3     1  UNL1        0.0323
     15 C          62.8018   85.4691    8.2427 C.3     1  UNL1        0.0001
     16 C          61.3767   85.9014    8.4215 C.3     1  UNL1        0.0026
     17 C          64.0689   86.1547   13.9396 C.3     1  UNL1        0.1897
     18 N          63.8738   87.3281   14.8535 N.ar    1  UNL1       -0.2246
     19 C          64.3144   88.7368   14.5859 C.ar    1  UNL1        0.1974
     20 N          63.9168   89.5781   15.7624 N.ar    1  UNL1       -0.2007
     21 C          63.2306   88.6894   16.7570 C.ar    1  UNL1        0.2210
     22 N          63.2040   87.2989   16.1953 N.ar    1  UNL1       -0.1450
@<TRIPOS>BOND
     1    15    16    1
     2    16    14    1
     3    14     1    1
     4     1     2    1
     5     2     3    1
     6     3     4    1
     7     4    17    1
     8    17    18    1
     9    18    19   ar
    10    19    20   ar
    11    20    21   ar
    12    21    22   ar
    13     4     6    1
    14     6     7   ar
    15     7     8   ar
    16     8     9   ar
    17     9    10    1
    18     9    11   ar
    19    11    12   ar
    20    12    13    1
    21     4     5    1
    22     5     1    1
    23    22    18   ar
    24    12     6   ar
