@<TRIPOS>MOLECULE
*****
 32 35 0 0 0
SMALL
GASTEIGER

@<TRIPOS>ATOM
      1 O          62.4455   81.5437   15.2942 O.2     1  UNL1       -0.2699
      2 C          62.7864   82.1881   13.9832 C.2     1  UNL1        0.2494
      3 N          63.0643   83.6607   13.9211 N.am    1  UNL1       -0.2660
      4 C          63.4052   84.3051   12.6102 C.3     1  UNL1        0.1160
      5 C          63.6831   85.7779   12.5481 C.3     1  UNL1        0.1197
      6 N          63.6201   86.6062   13.7970 N.am    1  UNL1       -0.2555
      7 C          63.2792   85.9619   15.1080 C.2     1  UNL1        0.2497
      8 O          63.2163   86.7903   16.3569 O.2     1  UNL1       -0.2727
      9 C          63.0013   84.4892   15.1701 C.3     1  UNL1        0.1799
     10 C          62.8494   81.3596   12.7343 C.ar    1  UNL1        0.0537
     11 C          63.2934   81.9813   11.4434 C.ar    1  UNL1        0.0068
     12 C          63.3564   81.1529   10.1946 C.ar    1  UNL1        0.0298
     13 C          62.9753   79.7027   10.2366 C.ar    1  UNL1        0.1401
     14 F          63.0382   78.8743    8.9876 F       1  UNL1       -0.2042
     15 C          62.5313   79.0810   11.5274 C.ar    1  UNL1        0.0298
     16 C          62.4683   79.9094   12.7762 C.ar    1  UNL1        0.0068
     17 C          63.8980   88.0789   13.7350 C.ar    1  UNL1        0.0541
     18 C          64.6609   88.7455   14.8411 C.ar    1  UNL1        0.0180
     19 C          64.9388   90.2183   14.7790 C.ar    1  UNL1        0.0382
     20 C          64.4538   91.0244   13.6108 C.ar    1  UNL1        0.1386
     21 C          63.6909   90.3578   12.5046 C.ar    1  UNL1        0.0382
     22 C          63.4130   88.8851   12.5667 C.ar    1  UNL1        0.0180
     23 O          64.7317   92.4971   13.5487 O.3     1  UNL1       -0.4754
     24 C          66.1392   93.0006   13.6727 C.3     1  UNL1        0.2068
     25 C          67.1411   92.6991   12.5978 C.3     1  UNL1        0.0646
     26 C          66.7586   92.8427   11.1545 C.3     1  UNL1        0.0759
     27 N          66.8855   94.1733   10.4738 N.3     1  UNL1       -0.2726
     28 C          66.3514   95.4086   11.1361 C.3     1  UNL1        0.0721
     29 C          66.4783   96.7392   10.4553 C.3     1  UNL1        0.0174
     30 C          67.1394   96.8345    9.1122 C.3     1  UNL1        0.0029
     31 C          67.6735   95.5992    8.4499 C.3     1  UNL1        0.0174
     32 C          67.5466   94.2686    9.1306 C.3     1  UNL1        0.0721
@<TRIPOS>BOND
     1     1     2    2
     2     2    10    1
     3    10    11   ar
     4    11    12   ar
     5    12    13   ar
     6    13    14    1
     7    13    15   ar
     8    15    16   ar
     9     2     3   am
    10     3     4    1
    11     4     5    1
    12     5     6    1
    13     6    17    1
    14    17    18   ar
    15    18    19   ar
    16    19    20   ar
    17    20    23    1
    18    23    24    1
    19    24    25    1
    20    25    26    1
    21    26    27    1
    22    27    28    1
    23    28    29    1
    24    29    30    1
    25    30    31    1
    26    31    32    1
    27    20    21   ar
    28    21    22   ar
    29     6     7   am
    30     7     8    2
    31     7     9    1
    32    16    10   ar
    33     9     3    1
    34    22    17   ar
    35    32    27    1
@<TRIPOS>MOLECULE
*****
 32 35 0 0 0
SMALL
GASTEIGER

@<TRIPOS>ATOM
      1 O          64.3282   86.1580   14.2528 O.2     1  UNL1       -0.2699
      2 C          63.4676   85.3658   13.3138 C.2     1  UNL1        0.2494
      3 N          62.7339   86.0583   12.2039 N.am    1  UNL1       -0.2660
      4 C          61.8733   85.2661   11.2649 C.3     1  UNL1        0.1160
      5 C          61.1395   85.9587   10.1549 C.3     1  UNL1        0.1197
      6 N          61.2663   87.4435    9.9841 N.am    1  UNL1       -0.2555
      7 C          62.1269   88.2358   10.9231 C.2     1  UNL1        0.2497
      8 O          62.2536   89.7206   10.7523 O.2     1  UNL1       -0.2727
      9 C          62.8606   87.5432   12.0330 C.3     1  UNL1        0.1799
     10 C          63.3409   83.8809   13.4847 C.ar    1  UNL1        0.0537
     11 C          62.3004   83.3182   14.4070 C.ar    1  UNL1        0.0068
     12 C          62.1736   81.8334   14.5778 C.ar    1  UNL1        0.0298
     13 C          63.0874   80.9113   13.8264 C.ar    1  UNL1        0.1401
     14 F          62.9607   79.4264   13.9973 F       1  UNL1       -0.2042
     15 C          64.1279   81.4739   12.9041 C.ar    1  UNL1        0.0298
     16 C          64.2547   82.9587   12.7332 C.ar    1  UNL1        0.0068
     17 C          60.5325   88.1361    8.8742 C.ar    1  UNL1        0.0541
     18 C          60.5449   89.6335    8.7868 C.ar    1  UNL1        0.0180
     19 C          59.8110   90.3260    7.6768 C.ar    1  UNL1        0.0382
     20 C          59.0649   89.5212    6.6544 C.ar    1  UNL1        0.1386
     21 C          59.0525   88.0238    6.7418 C.ar    1  UNL1        0.0382
     22 C          59.7863   87.3312    7.8517 C.ar    1  UNL1        0.0180
     23 O          58.3311   90.2138    5.5445 O.3     1  UNL1       -0.4754
     24 C          58.6904   91.6216    5.1718 C.3     1  UNL1        0.2068
     25 C          59.9639   91.8992    4.4294 C.3     1  UNL1        0.0646
     26 C          59.9428   92.7557    3.1982 C.3     1  UNL1        0.0759
     27 N          61.2095   93.0001    2.4328 N.3     1  UNL1       -0.2726
     28 C          62.4499   92.2264    2.7686 C.3     1  UNL1        0.0721
     29 C          63.7166   92.4709    2.0032 C.3     1  UNL1        0.0174
     30 C          63.7428   93.4891    0.9021 C.3     1  UNL1        0.0029
     31 C          62.5024   94.2628    0.5663 C.3     1  UNL1        0.0174
     32 C          61.2358   94.0184    1.3316 C.3     1  UNL1        0.0721
@<TRIPOS>BOND
     1     1     2    2
     2     2    10    1
     3    10    11   ar
     4    11    12   ar
     5    12    13   ar
     6    13    14    1
     7    13    15   ar
     8    15    16   ar
     9     2     3   am
    10     3     4    1
    11     4     5    1
    12     5     6    1
    13     6    17    1
    14    17    18   ar
    15    18    19   ar
    16    19    20   ar
    17    20    23    1
    18    23    24    1
    19    24    25    1
    20    25    26    1
    21    26    27    1
    22    27    28    1
    23    28    29    1
    24    29    30    1
    25    30    31    1
    26    31    32    1
    27    20    21   ar
    28    21    22   ar
    29     6     7   am
    30     7     8    2
    31     7     9    1
    32    16    10   ar
    33     9     3    1
    34    22    17   ar
    35    32    27    1
@<TRIPOS>MOLECULE
*****
 32 35 0 0 0
SMALL
GASTEIGER

@<TRIPOS>ATOM
      1 O          61.7275   81.2454   15.3460 O.2     1  UNL1       -0.2699
      2 C          62.3220   82.0346   14.2173 C.2     1  UNL1        0.2494
      3 N          62.6558   83.4842   14.4099 N.am    1  UNL1       -0.2660
      4 C          63.2502   84.2733   13.2812 C.3     1  UNL1        0.1160
      5 C          63.5840   85.7230   13.4739 C.3     1  UNL1        0.1197
      6 N          63.3234   86.3835   14.7951 N.am    1  UNL1       -0.2555
      7 C          62.7289   85.5944   15.9238 C.2     1  UNL1        0.2497
      8 O          62.4683   86.2549   17.2451 O.2     1  UNL1       -0.2727
      9 C          62.3951   84.1448   15.7312 C.3     1  UNL1        0.1799
     10 C          62.5826   81.3740   12.8960 C.ar    1  UNL1        0.0537
     11 C          62.4562   79.8852   12.7639 C.ar    1  UNL1        0.0068
     12 C          62.7168   79.2248   11.4426 C.ar    1  UNL1        0.0298
     13 C          63.1039   80.0531   10.2535 C.ar    1  UNL1        0.1401
     14 F          63.3646   79.3925    8.9322 F       1  UNL1       -0.2042
     15 C          63.2304   81.5418   10.3856 C.ar    1  UNL1        0.0298
     16 C          62.9697   82.2023   11.7069 C.ar    1  UNL1        0.0068
     17 C          63.6571   87.8331   14.9877 C.ar    1  UNL1        0.0541
     18 C          63.2853   88.5251   16.2656 C.ar    1  UNL1        0.0180
     19 C          63.6191   89.9748   16.4582 C.ar    1  UNL1        0.0382
     20 C          64.3248   90.7325   15.3729 C.ar    1  UNL1        0.1386
     21 C          64.6966   90.0405   14.0950 C.ar    1  UNL1        0.0382
     22 C          64.3628   88.5909   13.9024 C.ar    1  UNL1        0.0180
     23 O          64.6586   92.1821   15.5655 O.3     1  UNL1       -0.4754
     24 C          65.8865   92.5734   16.3329 C.3     1  UNL1        0.2068
     25 C          67.1208   93.0105   15.6010 C.3     1  UNL1        0.0646
     26 C          67.5698   92.2677   14.3776 C.3     1  UNL1        0.0759
     27 N          67.1895   92.7670   13.0153 N.3     1  UNL1       -0.2726
     28 C          66.4060   94.0383   12.8742 C.3     1  UNL1        0.0721
     29 C          66.0257   94.5376   11.5118 C.3     1  UNL1        0.0174
     30 C          66.4289   93.7656   10.2905 C.3     1  UNL1        0.0029
     31 C          67.2124   92.4943   10.4317 C.3     1  UNL1        0.0174
     32 C          67.5927   91.9950   11.7940 C.3     1  UNL1        0.0721
@<TRIPOS>BOND
     1     1     2    2
     2     2    10    1
     3    10    11   ar
     4    11    12   ar
     5    12    13   ar
     6    13    14    1
     7    13    15   ar
     8    15    16   ar
     9     2     3   am
    10     3     4    1
    11     4     5    1
    12     5     6    1
    13     6    17    1
    14    17    18   ar
    15    18    19   ar
    16    19    20   ar
    17    20    23    1
    18    23    24    1
    19    24    25    1
    20    25    26    1
    21    26    27    1
    22    27    28    1
    23    28    29    1
    24    29    30    1
    25    30    31    1
    26    31    32    1
    27    20    21   ar
    28    21    22   ar
    29     6     7   am
    30     7     8    2
    31     7     9    1
    32    16    10   ar
    33     9     3    1
    34    22    17   ar
    35    32    27    1
@<TRIPOS>MOLECULE
*****
 32 35 0 0 0
SMALL
GASTEIGER

@<TRIPOS>ATOM
      1 O          64.2784   83.4256   12.1180 O.2     1  UNL1       -0.2699
      2 C          63.4582   84.5988   12.5662 C.2     1  UNL1        0.2494
      3 N          62.6923   85.4064   11.5607 N.am    1  UNL1       -0.2660
      4 C          61.8721   86.5796   12.0089 C.3     1  UNL1        0.1160
      5 C          61.1062   87.3872   11.0033 C.3     1  UNL1        0.1197
      6 N          61.1606   87.0217    9.5496 N.am    1  UNL1       -0.2555
      7 C          61.9808   85.8485    9.1014 C.2     1  UNL1        0.2497
      8 O          62.0351   85.4830    7.6476 O.2     1  UNL1       -0.2727
      9 C          62.7467   85.0409   10.1069 C.3     1  UNL1        0.1799
     10 C          63.4039   84.9643   14.0200 C.ar    1  UNL1        0.0537
     11 C          64.3057   86.0352   14.5583 C.ar    1  UNL1        0.0068
     12 C          64.2514   86.4007   16.0121 C.ar    1  UNL1        0.0298
     13 C          63.2952   85.6952   16.9275 C.ar    1  UNL1        0.1401
     14 F          63.2409   86.0607   18.3813 F       1  UNL1       -0.2042
     15 C          62.3934   84.6243   16.3892 C.ar    1  UNL1        0.0298
     16 C          62.4477   84.2588   14.9355 C.ar    1  UNL1        0.0068
     17 C          60.3947   87.8294    8.5441 C.ar    1  UNL1        0.0541
     18 C          60.5815   89.3162    8.4772 C.ar    1  UNL1        0.0180
     19 C          59.8156   90.1238    7.4716 C.ar    1  UNL1        0.0382
     20 C          58.8629   89.4446    6.5330 C.ar    1  UNL1        0.1386
     21 C          58.6760   87.9578    6.5999 C.ar    1  UNL1        0.0382
     22 C          59.4419   87.1502    7.6054 C.ar    1  UNL1        0.0180
     23 O          58.0970   90.2523    5.5275 O.3     1  UNL1       -0.4754
     24 C          58.5562   91.6346    5.1691 C.3     1  UNL1        0.2068
     25 C          59.8348   91.8265    4.4084 C.3     1  UNL1        0.0646
     26 C          59.8874   92.7919    3.2616 C.3     1  UNL1        0.0759
     27 N          61.1634   92.9769    2.4950 N.3     1  UNL1       -0.2726
     28 C          62.3824   92.1851    2.8653 C.3     1  UNL1        0.0721
     29 C          63.6583   92.3702    2.0986 C.3     1  UNL1        0.0174
     30 C          63.7152   93.3469    0.9616 C.3     1  UNL1        0.0029
     31 C          62.4962   94.1386    0.5913 C.3     1  UNL1        0.0174
     32 C          61.2203   93.9536    1.3579 C.3     1  UNL1        0.0721
@<TRIPOS>BOND
     1     1     2    2
     2     2    10    1
     3    10    11   ar
     4    11    12   ar
     5    12    13   ar
     6    13    14    1
     7    13    15   ar
     8    15    16   ar
     9     2     3   am
    10     3     4    1
    11     4     5    1
    12     5     6    1
    13     6    17    1
    14    17    18   ar
    15    18    19   ar
    16    19    20   ar
    17    20    23    1
    18    23    24    1
    19    24    25    1
    20    25    26    1
    21    26    27    1
    22    27    28    1
    23    28    29    1
    24    29    30    1
    25    30    31    1
    26    31    32    1
    27    20    21   ar
    28    21    22   ar
    29     6     7   am
    30     7     8    2
    31     7     9    1
    32    16    10   ar
    33     9     3    1
    34    22    17   ar
    35    32    27    1
@<TRIPOS>MOLECULE
*****
 32 35 0 0 0
SMALL
GASTEIGER

@<TRIPOS>ATOM
      1 O          61.5942   84.8009   10.1536 O.2     1  UNL1       -0.2699
      2 C          62.2720   84.6308   11.4808 C.2     1  UNL1        0.2494
      3 N          62.8096   85.8280   12.2073 N.am    1  UNL1       -0.2660
      4 C          63.4874   85.6579   13.5345 C.3     1  UNL1        0.1160
      5 C          64.0250   86.8552   14.2610 C.3     1  UNL1        0.1197
      6 N          63.8848   88.2224   13.6602 N.am    1  UNL1       -0.2555
      7 C          63.2069   88.3924   12.3330 C.2     1  UNL1        0.2497
      8 O          63.0666   89.7597   11.7322 O.2     1  UNL1       -0.2727
      9 C          62.6693   87.1953   11.6065 C.3     1  UNL1        0.1799
     10 C          62.4123   83.2635   12.0816 C.ar    1  UNL1        0.0537
     11 C          62.0420   83.0333   13.5168 C.ar    1  UNL1        0.0068
     12 C          62.1822   81.6661   14.1175 C.ar    1  UNL1        0.0298
     13 C          62.6928   80.5290   13.2830 C.ar    1  UNL1        0.1401
     14 F          62.8331   79.1617   13.8838 F       1  UNL1       -0.2042
     15 C          63.0632   80.7592   11.8478 C.ar    1  UNL1        0.0298
     16 C          62.9229   82.1264   11.2471 C.ar    1  UNL1        0.0068
     17 C          64.4223   89.4195   14.3867 C.ar    1  UNL1        0.0541
     18 C          63.6206   90.0528   15.4850 C.ar    1  UNL1        0.0180
     19 C          64.1583   91.2500   16.2114 C.ar    1  UNL1        0.0382
     20 C          65.4975   91.8139   15.8396 C.ar    1  UNL1        0.1386
     21 C          66.2993   91.1806   14.7413 C.ar    1  UNL1        0.0382
     22 C          65.7617   89.9835   14.0149 C.ar    1  UNL1        0.0180
     23 O          66.0351   93.0110   16.5661 O.3     1  UNL1       -0.4754
     24 C          67.3208   93.6432   16.1216 C.3     1  UNL1        0.2068
     25 C          67.6047   93.8171   14.6590 C.3     1  UNL1        0.0646
     26 C          66.4982   94.1970   13.7202 C.3     1  UNL1        0.0759
     27 N          66.6917   94.0616   12.2390 N.3     1  UNL1       -0.2726
     28 C          66.4729   95.2444   11.3428 C.3     1  UNL1        0.0721
     29 C          66.6664   95.1089    9.8615 C.3     1  UNL1        0.0174
     30 C          67.0787   93.7907    9.2764 C.3     1  UNL1        0.0029
     31 C          67.2975   92.6080   10.1726 C.3     1  UNL1        0.0174
     32 C          67.1040   92.7434   11.6538 C.3     1  UNL1        0.0721
@<TRIPOS>BOND
     1     1     2    2
     2     2    10    1
     3    10    11   ar
     4    11    12   ar
     5    12    13   ar
     6    13    14    1
     7    13    15   ar
     8    15    16   ar
     9     2     3   am
    10     3     4    1
    11     4     5    1
    12     5     6    1
    13     6    17    1
    14    17    18   ar
    15    18    19   ar
    16    19    20   ar
    17    20    23    1
    18    23    24    1
    19    24    25    1
    20    25    26    1
    21    26    27    1
    22    27    28    1
    23    28    29    1
    24    29    30    1
    25    30    31    1
    26    31    32    1
    27    20    21   ar
    28    21    22   ar
    29     6     7   am
    30     7     8    2
    31     7     9    1
    32    16    10   ar
    33     9     3    1
    34    22    17   ar
    35    32    27    1
@<TRIPOS>MOLECULE
*****
 32 35 0 0 0
SMALL
GASTEIGER

@<TRIPOS>ATOM
      1 O          58.8854   87.1088    7.4359 O.2     1  UNL1       -0.2699
      2 C          59.4838   88.4796    7.5500 C.2     1  UNL1        0.2494
      3 N          60.3845   88.8111    8.7027 N.am    1  UNL1       -0.2660
      4 C          60.9829   90.1818    8.8169 C.3     1  UNL1        0.1160
      5 C          61.8836   90.5134    9.9696 C.3     1  UNL1        0.1197
      6 N          62.1860   89.4741   11.0081 N.am    1  UNL1       -0.2555
      7 C          61.5876   88.1034   10.8940 C.2     1  UNL1        0.2497
      8 O          61.8900   87.0642   11.9325 O.2     1  UNL1       -0.2727
      9 C          60.6869   87.7719    9.7413 C.3     1  UNL1        0.1799
     10 C          59.1813   89.5188    6.5114 C.ar    1  UNL1        0.0537
     11 C          60.2997   90.1628    5.7470 C.ar    1  UNL1        0.0068
     12 C          59.9973   91.2020    4.7084 C.ar    1  UNL1        0.0298
     13 C          58.5765   91.5971    4.4343 C.ar    1  UNL1        0.1401
     14 F          58.2740   92.6364    3.3957 F       1  UNL1       -0.2042
     15 C          57.4581   90.9531    5.1988 C.ar    1  UNL1        0.0298
     16 C          57.7605   89.9140    6.2373 C.ar    1  UNL1        0.0068
     17 C          63.0867   89.8057   12.1608 C.ar    1  UNL1        0.0541
     18 C          63.5316   91.2210   12.3821 C.ar    1  UNL1        0.0180
     19 C          64.4324   91.5525   13.5348 C.ar    1  UNL1        0.0382
     20 C          64.8882   90.4687   14.4663 C.ar    1  UNL1        0.1386
     21 C          64.4433   89.0534   14.2450 C.ar    1  UNL1        0.0382
     22 C          63.5426   88.7219   13.0923 C.ar    1  UNL1        0.0180
     23 O          65.7890   90.8003   15.6189 O.3     1  UNL1       -0.4754
     24 C          66.0660   92.2329   15.9664 C.3     1  UNL1        0.2068
     25 C          67.3014   92.9056   15.4453 C.3     1  UNL1        0.0646
     26 C          67.9836   92.3754   14.2192 C.3     1  UNL1        0.0759
     27 N          67.4856   92.7607   12.8578 N.3     1  UNL1       -0.2726
     28 C          67.9740   92.0260   11.6448 C.3     1  UNL1        0.0721
     29 C          67.4759   92.4114   10.2833 C.3     1  UNL1        0.0174
     30 C          66.4894   93.5316   10.1350 C.3     1  UNL1        0.0029
     31 C          66.0010   94.2663   11.3481 C.3     1  UNL1        0.0174
     32 C          66.4991   93.8810   12.7095 C.3     1  UNL1        0.0721
@<TRIPOS>BOND
     1     1     2    2
     2     2    10    1
     3    10    11   ar
     4    11    12   ar
     5    12    13   ar
     6    13    14    1
     7    13    15   ar
     8    15    16   ar
     9     2     3   am
    10     3     4    1
    11     4     5    1
    12     5     6    1
    13     6    17    1
    14    17    18   ar
    15    18    19   ar
    16    19    20   ar
    17    20    23    1
    18    23    24    1
    19    24    25    1
    20    25    26    1
    21    26    27    1
    22    27    28    1
    23    28    29    1
    24    29    30    1
    25    30    31    1
    26    31    32    1
    27    20    21   ar
    28    21    22   ar
    29     6     7   am
    30     7     8    2
    31     7     9    1
    32    16    10   ar
    33     9     3    1
    34    22    17   ar
    35    32    27    1
@<TRIPOS>MOLECULE
*****
 32 35 0 0 0
SMALL
GASTEIGER

@<TRIPOS>ATOM
      1 O          57.2342   90.6296    5.8954 O.2     1  UNL1       -0.2699
      2 C          58.7089   90.3566    5.9240 C.2     1  UNL1        0.2494
      3 N          59.6230   91.0736    4.9752 N.am    1  UNL1       -0.2660
      4 C          61.0976   90.8006    5.0039 C.3     1  UNL1        0.1160
      5 C          62.0117   91.5176    4.0550 C.3     1  UNL1        0.1197
      6 N          61.4511   92.5077    3.0775 N.am    1  UNL1       -0.2555
      7 C          59.9765   92.7807    3.0488 C.2     1  UNL1        0.2497
      8 O          59.4159   93.7708    2.0714 O.2     1  UNL1       -0.2727
      9 C          59.0624   92.0637    3.9977 C.3     1  UNL1        0.1799
     10 C          59.2695   89.3665    6.9016 C.ar    1  UNL1        0.0537
     11 C          59.0583   87.8973    6.6855 C.ar    1  UNL1        0.0068
     12 C          59.6188   86.9073    7.6630 C.ar    1  UNL1        0.0298
     13 C          60.3906   87.3864    8.8566 C.ar    1  UNL1        0.1401
     14 F          60.9512   86.3963    9.8342 F       1  UNL1       -0.2042
     15 C          60.6018   88.8557    9.0727 C.ar    1  UNL1        0.0298
     16 C          60.0412   89.8457    8.0952 C.ar    1  UNL1        0.0068
     17 C          62.3652   93.2247    2.1286 C.ar    1  UNL1        0.0541
     18 C          63.6230   92.5603    1.6527 C.ar    1  UNL1        0.0180
     19 C          64.5371   93.2774    0.7038 C.ar    1  UNL1        0.0382
     20 C          64.1934   94.6588    0.2309 C.ar    1  UNL1        0.1386
     21 C          62.9356   95.3231    0.7069 C.ar    1  UNL1        0.0382
     22 C          62.0215   94.6061    1.6557 C.ar    1  UNL1        0.0180
     23 O          65.1074   95.3758   -0.7179 O.3     1  UNL1       -0.4754
     24 C          64.7578   95.4637   -2.1739 C.3     1  UNL1        0.2068
     25 C          64.0580   94.3206   -2.8476 C.3     1  UNL1        0.0646
     26 C          62.7332   94.5411   -3.5156 C.3     1  UNL1        0.0759
     27 N          61.4878   93.9493   -2.9252 N.3     1  UNL1       -0.2726
     28 C          61.5600   93.1781   -1.6406 C.3     1  UNL1        0.0721
     29 C          60.3145   92.5862   -1.0502 C.3     1  UNL1        0.0174
     30 C          58.9969   92.7655   -1.7443 C.3     1  UNL1        0.0029
     31 C          58.9248   93.5367   -3.0289 C.3     1  UNL1        0.0174
     32 C          60.1702   94.1286   -3.6193 C.3     1  UNL1        0.0721
@<TRIPOS>BOND
     1     1     2    2
     2     2    10    1
     3    10    11   ar
     4    11    12   ar
     5    12    13   ar
     6    13    14    1
     7    13    15   ar
     8    15    16   ar
     9     2     3   am
    10     3     4    1
    11     4     5    1
    12     5     6    1
    13     6    17    1
    14    17    18   ar
    15    18    19   ar
    16    19    20   ar
    17    20    23    1
    18    23    24    1
    19    24    25    1
    20    25    26    1
    21    26    27    1
    22    27    28    1
    23    28    29    1
    24    29    30    1
    25    30    31    1
    26    31    32    1
    27    20    21   ar
    28    21    22   ar
    29     6     7   am
    30     7     8    2
    31     7     9    1
    32    16    10   ar
    33     9     3    1
    34    22    17   ar
    35    32    27    1
@<TRIPOS>MOLECULE
*****
 32 35 0 0 0
SMALL
GASTEIGER

@<TRIPOS>ATOM
      1 O          62.5968   83.3945   16.8409 O.2     1  UNL1       -0.2699
      2 C          62.8664   83.6689   15.3911 C.2     1  UNL1        0.2494
      3 N          63.1892   85.0621   14.9388 N.am    1  UNL1       -0.2660
      4 C          63.4588   85.3365   13.4890 C.3     1  UNL1        0.1160
      5 C          63.7817   86.7298   13.0367 C.3     1  UNL1        0.1197
      6 N          63.8349   87.8487   14.0343 N.am    1  UNL1       -0.2555
      7 C          63.5653   87.5744   15.4841 C.2     1  UNL1        0.2497
      8 O          63.6186   88.6932   16.4817 O.2     1  UNL1       -0.2727
      9 C          63.2425   86.1811   15.9364 C.3     1  UNL1        0.1799
     10 C          62.8131   82.5499   14.3935 C.ar    1  UNL1        0.0537
     11 C          61.6866   81.5604   14.4357 C.ar    1  UNL1        0.0068
     12 C          61.6333   80.4415   13.4382 C.ar    1  UNL1        0.0298
     13 C          62.7067   80.3121   12.3983 C.ar    1  UNL1        0.1401
     14 F          62.6534   79.1931   11.4007 F       1  UNL1       -0.2042
     15 C          63.8332   81.3016   12.3561 C.ar    1  UNL1        0.0298
     16 C          63.8864   82.4205   13.3536 C.ar    1  UNL1        0.0068
     17 C          64.1578   89.2420   13.5820 C.ar    1  UNL1        0.0541
     18 C          63.4215   89.8434   12.4218 C.ar    1  UNL1        0.0180
     19 C          63.7444   91.2367   11.9695 C.ar    1  UNL1        0.0382
     20 C          64.8035   92.0285   12.6775 C.ar    1  UNL1        0.1386
     21 C          65.5398   91.4271   13.8378 C.ar    1  UNL1        0.0382
     22 C          65.2169   90.0338   14.2900 C.ar    1  UNL1        0.0180
     23 O          65.1264   93.4218   12.2252 O.3     1  UNL1       -0.4754
     24 C          66.3422   94.1204   12.7579 C.3     1  UNL1        0.2068
     25 C          66.4674   95.6098   12.6305 C.3     1  UNL1        0.0646
     26 C          65.7698   96.3283   11.5138 C.3     1  UNL1        0.0759
     27 N          66.1768   96.0790   10.0918 N.3     1  UNL1       -0.2726
     28 C          65.5309   96.8520    8.9803 C.3     1  UNL1        0.0721
     29 C          65.9380   96.6027    7.5582 C.3     1  UNL1        0.0174
     30 C          66.9907   95.5804    7.2476 C.3     1  UNL1        0.0029
     31 C          67.6366   94.8074    8.3591 C.3     1  UNL1        0.0174
     32 C          67.2296   95.0567    9.7811 C.3     1  UNL1        0.0721
@<TRIPOS>BOND
     1     1     2    2
     2     2    10    1
     3    10    11   ar
     4    11    12   ar
     5    12    13   ar
     6    13    14    1
     7    13    15   ar
     8    15    16   ar
     9     2     3   am
    10     3     4    1
    11     4     5    1
    12     5     6    1
    13     6    17    1
    14    17    18   ar
    15    18    19   ar
    16    19    20   ar
    17    20    23    1
    18    23    24    1
    19    24    25    1
    20    25    26    1
    21    26    27    1
    22    27    28    1
    23    28    29    1
    24    29    30    1
    25    30    31    1
    26    31    32    1
    27    20    21   ar
    28    21    22   ar
    29     6     7   am
    30     7     8    2
    31     7     9    1
    32    16    10   ar
    33     9     3    1
    34    22    17   ar
    35    32    27    1
@<TRIPOS>MOLECULE
*****
 32 35 0 0 0
SMALL
GASTEIGER

@<TRIPOS>ATOM
      1 O          64.0217   83.2876   11.9811 O.2     1  UNL1       -0.2699
      2 C          63.3096   84.5261   12.4384 C.2     1  UNL1        0.2494
      3 N          62.5849   85.3848   11.4448 N.am    1  UNL1       -0.2660
      4 C          61.8729   86.6232   11.9021 C.3     1  UNL1        0.1160
      5 C          61.1482   87.4819   10.9083 C.3     1  UNL1        0.1197
      6 N          61.1356   87.1022    9.4573 N.am    1  UNL1       -0.2555
      7 C          61.8477   85.8637    8.9999 C.2     1  UNL1        0.2497
      8 O          61.8351   85.4840    7.5489 O.2     1  UNL1       -0.2727
      9 C          62.5723   85.0050    9.9936 C.3     1  UNL1        0.1799
     10 C          63.3222   84.9058   13.8896 C.ar    1  UNL1        0.0537
     11 C          64.2862   85.9426   14.3852 C.ar    1  UNL1        0.0068
     12 C          64.2988   86.3223   15.8362 C.ar    1  UNL1        0.0298
     13 C          63.3473   85.6652   16.7917 C.ar    1  UNL1        0.1401
     14 F          63.3599   86.0449   18.2428 F       1  UNL1       -0.2042
     15 C          62.3833   84.6284   16.2961 C.ar    1  UNL1        0.0298
     16 C          62.3707   84.2487   14.8450 C.ar    1  UNL1        0.0068
     17 C          60.4109   87.9609    8.4636 C.ar    1  UNL1        0.0541
     18 C          59.5390   87.3277    7.4202 C.ar    1  UNL1        0.0180
     19 C          58.8143   88.1865    6.4264 C.ar    1  UNL1        0.0382
     20 C          58.9616   89.6784    6.4762 C.ar    1  UNL1        0.1386
     21 C          59.8335   90.3116    7.5197 C.ar    1  UNL1        0.0382
     22 C          60.5582   89.4529    8.5133 C.ar    1  UNL1        0.0180
     23 O          58.2369   90.5371    5.4825 O.3     1  UNL1       -0.4754
     24 C          58.8573   91.8159    5.0031 C.3     1  UNL1        0.2068
     25 C          59.1072   92.0254    3.5389 C.3     1  UNL1        0.0646
     26 C          60.1738   92.9795    3.0892 C.3     1  UNL1        0.0759
     27 N          59.8750   93.9890    2.0208 N.3     1  UNL1       -0.2726
     28 C          59.1780   93.5650    0.7621 C.3     1  UNL1        0.0721
     29 C          58.8792   94.5746   -0.3064 C.3     1  UNL1        0.0174
     30 C          59.2775   96.0081   -0.1161 C.3     1  UNL1        0.0029
     31 C          59.9746   96.4321    1.1426 C.3     1  UNL1        0.0174
     32 C          60.2733   95.4226    2.2110 C.3     1  UNL1        0.0721
@<TRIPOS>BOND
     1     1     2    2
     2     2    10    1
     3    10    11   ar
     4    11    12   ar
     5    12    13   ar
     6    13    14    1
     7    13    15   ar
     8    15    16   ar
     9     2     3   am
    10     3     4    1
    11     4     5    1
    12     5     6    1
    13     6    17    1
    14    17    18   ar
    15    18    19   ar
    16    19    20   ar
    17    20    23    1
    18    23    24    1
    19    24    25    1
    20    25    26    1
    21    26    27    1
    22    27    28    1
    23    28    29    1
    24    29    30    1
    25    30    31    1
    26    31    32    1
    27    20    21   ar
    28    21    22   ar
    29     6     7   am
    30     7     8    2
    31     7     9    1
    32    16    10   ar
    33     9     3    1
    34    22    17   ar
    35    32    27    1
