@<TRIPOS>MOLECULE
*****
 25 27 0 0 0
SMALL
GASTEIGER

@<TRIPOS>ATOM
      1 C          62.9038   89.8010   12.6239 C.3     1  UNL1        0.1330
      2 N          61.7869   90.0104   13.6032 N.3     1  UNL1       -0.3148
      3 H          61.7947   90.9780   13.9259 H       1  UNL1        0.1192
      4 H          61.9113   89.3853   14.3995 H       1  UNL1        0.1192
      5 C          64.8671   91.0435   14.7256 C.3     1  UNL1        0.1701
      6 C          65.9077   91.8886   15.3984 C.3     1  UNL1        0.0726
      7 C          66.4248   92.8748   14.3934 C.3     1  UNL1        0.1834
      8 F          67.4780   93.9141   14.6392 F       1  UNL1       -0.2354
      9 C          65.7036   92.6392   13.0994 C.3     1  UNL1        0.1296
     10 N          64.7410   91.5074   13.3047 N.am    1  UNL1       -0.2645
     11 C          63.8147   90.9392   12.2706 C.2     1  UNL1        0.2408
     12 O          63.7993   91.5092   10.8832 O.2     1  UNL1       -0.2734
     13 N          63.3112   88.8164   15.9981 N.1     1  UNL1       -0.1942
     14 C          64.0892   89.9300   15.3618 C.1     1  UNL1        0.0926
     15 C          63.1098   88.4534   11.9981 C.3     1  UNL1        0.0518
     16 C          62.1664   87.9667   10.9382 C.ar    1  UNL1       -0.0109
     17 C          61.4969   88.9478   10.0222 C.ar    1  UNL1        0.0365
     18 C          60.5536   88.4611    8.9623 C.ar    1  UNL1        0.1761
     19 C          60.2798   86.9933    8.8186 C.ar    1  UNL1        0.1769
     20 C          60.9493   86.0122    9.7346 C.ar    1  UNL1        0.0466
     21 C          61.8927   86.4990   10.7945 C.ar    1  UNL1        0.0339
     22 BR         62.5622   85.5178   11.7106 Br      1  UNL1       -0.0492
     23 O          59.3096   86.8112    7.6892 O.3     1  UNL1       -0.4346
     24 C          58.9837   88.1664    7.1350 C.3     1  UNL1        0.4294
     25 O          59.7526   89.1861    7.9218 O.3     1  UNL1       -0.4346
@<TRIPOS>BOND
     1    13    14    3
     2     5    14    1
     3     5     6    1
     4     6     7    1
     5     7     8    1
     6     7     9    1
     7     9    10    1
     8    10    11   am
     9    11    12    2
    10    11     1    1
    11     1     2    1
    12     1    15    1
    13    15    16    1
    14    16    17   ar
    15    17    18   ar
    16    18    19   ar
    17    19    20   ar
    18    20    21   ar
    19    21    22    1
    20    19    23    1
    21    23    24    1
    22    24    25    1
    23    10     5    1
    24    21    16   ar
    25    25    18    1
    26     2     3    1
    27     2     4    1
@<TRIPOS>MOLECULE
*****
 25 27 0 0 0
SMALL
GASTEIGER

@<TRIPOS>ATOM
      1 C          62.8295   89.4575   12.9435 C.3     1  UNL1        0.1330
      2 N          61.5212   90.1633   12.7426 N.3     1  UNL1       -0.3148
      3 H          61.4137   90.8884   13.4518 H       1  UNL1        0.1192
      4 H          60.7571   89.4926   12.8235 H       1  UNL1        0.1192
      5 C          64.8347   91.8450   12.6366 C.3     1  UNL1        0.1701
      6 C          65.8906   92.8789   12.8931 C.3     1  UNL1        0.0726
      7 C          66.3941   92.6898   14.2934 C.3     1  UNL1        0.1834
      8 F          67.4559   93.5079   14.9666 F       1  UNL1       -0.2354
      9 C          65.6493   91.5390   14.9022 C.3     1  UNL1        0.1296
     10 N          64.6856   91.0168   13.8783 N.am    1  UNL1       -0.2645
     11 C          63.7388   89.8681   14.0635 C.2     1  UNL1        0.2408
     12 O          63.7015   89.1299   15.3688 O.2     1  UNL1       -0.2734
     13 N          63.2920   91.4947   10.0875 N.1     1  UNL1       -0.1942
     14 C          64.0634   91.6699   11.3621 C.1     1  UNL1        0.0926
     15 C          63.2284   88.3412   12.0244 C.3     1  UNL1        0.0518
     16 C          62.2602   87.8328   10.9976 C.ar    1  UNL1       -0.0109
     17 C          61.5795   88.7936   10.0683 C.ar    1  UNL1        0.0365
     18 C          60.6113   88.2853    9.0415 C.ar    1  UNL1        0.1761
     19 C          60.3238   86.8163    8.9441 C.ar    1  UNL1        0.1769
     20 C          61.0044   85.8556    9.8734 C.ar    1  UNL1        0.0466
     21 C          61.9727   86.3640   10.9002 C.ar    1  UNL1        0.0339
     22 BR         62.6534   85.4032   11.8296 Br      1  UNL1       -0.0492
     23 O          59.3295   86.6108    7.8399 O.3     1  UNL1       -0.4346
     24 C          59.0026   87.9528    7.2549 C.3     1  UNL1        0.4294
     25 O          59.7947   88.9877    7.9975 O.3     1  UNL1       -0.4346
@<TRIPOS>BOND
     1    13    14    3
     2     5    14    1
     3     5     6    1
     4     6     7    1
     5     7     8    1
     6     7     9    1
     7     9    10    1
     8    10    11   am
     9    11    12    2
    10    11     1    1
    11     1     2    1
    12     1    15    1
    13    15    16    1
    14    16    17   ar
    15    17    18   ar
    16    18    19   ar
    17    19    20   ar
    18    20    21   ar
    19    21    22    1
    20    19    23    1
    21    23    24    1
    22    24    25    1
    23    10     5    1
    24    21    16   ar
    25    25    18    1
    26     2     3    1
    27     2     4    1
@<TRIPOS>MOLECULE
*****
 25 27 0 0 0
SMALL
GASTEIGER

@<TRIPOS>ATOM
      1 C          61.6258   89.6675   11.9721 C.3     1  UNL1        0.1330
      2 N          60.9938   89.8320   13.3225 N.3     1  UNL1       -0.3148
      3 H          59.9826   89.9141   13.2169 H       1  UNL1        0.1192
      4 H          61.3586   90.6738   13.7683 H       1  UNL1        0.1192
      5 C          61.2356   87.0524   10.2916 C.3     1  UNL1        0.1701
      6 C          60.8045   86.0620    9.2509 C.3     1  UNL1        0.0726
      7 C          59.9094   86.7713    8.2786 C.3     1  UNL1        0.1834
      8 F          59.2518   86.1592    7.0774 F       1  UNL1       -0.2354
      9 C          59.7872   88.2001    8.7183 C.3     1  UNL1        0.1296
     10 N          60.6069   88.3738    9.9625 N.am    1  UNL1       -0.2645
     11 C          60.7694   89.6459   10.7408 C.2     1  UNL1        0.2408
     12 O          60.0753   90.8961   10.2879 O.2     1  UNL1       -0.2734
     13 N          63.0388   86.4893   12.6222 N.1     1  UNL1       -0.1942
     14 C          62.1372   86.7708   11.4569 C.1     1  UNL1        0.0926
     15 C          63.1142   89.5247   11.8529 C.3     1  UNL1        0.0518
     16 C          64.0038   90.7053   12.1079 C.ar    1  UNL1       -0.0109
     17 C          64.2120   91.7329   11.0353 C.ar    1  UNL1        0.0365
     18 C          65.1015   92.9135   11.2902 C.ar    1  UNL1        0.1761
     19 C          65.7827   93.0666   12.6178 C.ar    1  UNL1        0.1769
     20 C          65.5744   92.0390   13.6905 C.ar    1  UNL1        0.0466
     21 C          64.6849   90.8583   13.4355 C.ar    1  UNL1        0.0339
     22 BR         64.4766   89.8307   14.5082 Br      1  UNL1       -0.0492
     23 O          66.5959   94.3264   12.5791 O.3     1  UNL1       -0.4346
     24 C          66.4174   94.9519   11.2276 C.3     1  UNL1        0.4294
     25 O          65.4938   94.0788   10.4309 O.3     1  UNL1       -0.4346
@<TRIPOS>BOND
     1    13    14    3
     2     5    14    1
     3     5     6    1
     4     6     7    1
     5     7     8    1
     6     7     9    1
     7     9    10    1
     8    10    11   am
     9    11    12    2
    10    11     1    1
    11     1     2    1
    12     1    15    1
    13    15    16    1
    14    16    17   ar
    15    17    18   ar
    16    18    19   ar
    17    19    20   ar
    18    20    21   ar
    19    21    22    1
    20    19    23    1
    21    23    24    1
    22    24    25    1
    23    10     5    1
    24    21    16   ar
    25    25    18    1
    26     2     3    1
    27     2     4    1
@<TRIPOS>MOLECULE
*****
 25 27 0 0 0
SMALL
GASTEIGER

@<TRIPOS>ATOM
      1 C          62.6045   89.5027   12.8730 C.3     1  UNL1        0.1330
      2 N          61.2101   90.0448   12.7647 N.3     1  UNL1       -0.3148
      3 H          61.0347   90.6885   13.5362 H       1  UNL1        0.1192
      4 H          60.5419   89.2751   12.8055 H       1  UNL1        0.1192
      5 C          64.6881   91.8167   12.5280 C.3     1  UNL1        0.1701
      6 C          65.7661   92.8303   12.7734 C.3     1  UNL1        0.0726
      7 C          66.2216   92.6877   14.1954 C.3     1  UNL1        0.1834
      8 F          67.2866   93.5036   14.8662 F       1  UNL1       -0.2354
      9 C          65.4250   91.5858   14.8289 C.3     1  UNL1        0.1296
     10 N          64.4773   91.0475   13.7984 N.am    1  UNL1       -0.2645
     11 C          63.4917   89.9352   14.0025 C.2     1  UNL1        0.2408
     12 O          63.3933   89.2556   15.3361 O.2     1  UNL1       -0.2734
     13 N          63.2127   91.4006    9.9492 N.1     1  UNL1       -0.1942
     14 C          63.9505   91.6086   11.2386 C.1     1  UNL1        0.0926
     15 C          63.1118   88.5280   11.8518 C.3     1  UNL1        0.0518
     16 C          63.0162   87.0535   12.1101 C.ar    1  UNL1       -0.0109
     17 C          63.6378   86.4662   13.3425 C.ar    1  UNL1        0.0365
     18 C          63.5423   84.9917   13.6009 C.ar    1  UNL1        0.1761
     19 C          62.8253   84.1045   12.6269 C.ar    1  UNL1        0.1769
     20 C          62.2037   84.6918   11.3945 C.ar    1  UNL1        0.0466
     21 C          62.2992   86.1663   11.1362 C.ar    1  UNL1        0.0339
     22 BR         61.6776   86.7536    9.9037 Br      1  UNL1       -0.0492
     23 O          62.8925   82.6982   13.1444 O.3     1  UNL1       -0.4346
     24 C          63.6512   82.7163   14.4383 C.3     1  UNL1        0.4294
     25 O          64.0528   84.1338   14.7204 O.3     1  UNL1       -0.4346
@<TRIPOS>BOND
     1    13    14    3
     2     5    14    1
     3     5     6    1
     4     6     7    1
     5     7     8    1
     6     7     9    1
     7     9    10    1
     8    10    11   am
     9    11    12    2
    10    11     1    1
    11     1     2    1
    12     1    15    1
    13    15    16    1
    14    16    17   ar
    15    17    18   ar
    16    18    19   ar
    17    19    20   ar
    18    20    21   ar
    19    21    22    1
    20    19    23    1
    21    23    24    1
    22    24    25    1
    23    10     5    1
    24    21    16   ar
    25    25    18    1
    26     2     3    1
    27     2     4    1
@<TRIPOS>MOLECULE
*****
 25 27 0 0 0
SMALL
GASTEIGER

@<TRIPOS>ATOM
      1 C          63.0331   84.4475   14.8687 C.3     1  UNL1        0.1330
      2 N          61.6311   84.9777   14.8117 N.3     1  UNL1       -0.3148
      3 H          61.0145   84.2669   14.4181 H       1  UNL1        0.1192
      4 H          61.6066   85.8118   14.2250 H       1  UNL1        0.1192
      5 C          63.0120   83.7386   11.8171 C.3     1  UNL1        0.1701
      6 C          63.1027   83.0113   10.5085 C.3     1  UNL1        0.0726
      7 C          63.4575   81.5825   10.7959 C.3     1  UNL1        0.1834
      8 F          63.6499   80.4995    9.7760 F       1  UNL1       -0.2354
      9 C          63.5859   81.4267   12.2822 C.3     1  UNL1        0.1296
     10 N          63.3106   82.7593   12.9134 N.am    1  UNL1       -0.2645
     11 C          63.3304   83.0599   14.3829 C.2     1  UNL1        0.2408
     12 O          63.6476   81.9727   15.3665 O.2     1  UNL1       -0.2734
     13 N          62.3494   86.6421   12.1786 N.1     1  UNL1       -0.1942
     14 C          62.6807   85.1903   11.9979 C.1     1  UNL1        0.0926
     15 C          64.1378   85.3049   15.4115 C.3     1  UNL1        0.0518
     16 C          63.9539   86.7902   15.5122 C.ar    1  UNL1       -0.0109
     17 C          64.4655   87.6848   14.4222 C.ar    1  UNL1        0.0365
     18 C          64.2816   89.1701   14.5229 C.ar    1  UNL1        0.1761
     19 C          63.5861   89.7607   15.7134 C.ar    1  UNL1        0.1769
     20 C          63.0745   88.8661   16.8034 C.ar    1  UNL1        0.0466
     21 C          63.2584   87.3808   16.7027 C.ar    1  UNL1        0.0339
     22 BR         62.7468   86.4861   17.7927 Br      1  UNL1       -0.0492
     23 O          63.5511   91.2500   15.5382 O.3     1  UNL1       -0.4346
     24 C          64.2250   91.5798   14.2393 C.3     1  UNL1        0.4294
     25 O          64.6764   90.2943   13.6118 O.3     1  UNL1       -0.4346
@<TRIPOS>BOND
     1    13    14    3
     2     5    14    1
     3     5     6    1
     4     6     7    1
     5     7     8    1
     6     7     9    1
     7     9    10    1
     8    10    11   am
     9    11    12    2
    10    11     1    1
    11     1     2    1
    12     1    15    1
    13    15    16    1
    14    16    17   ar
    15    17    18   ar
    16    18    19   ar
    17    19    20   ar
    18    20    21   ar
    19    21    22    1
    20    19    23    1
    21    23    24    1
    22    24    25    1
    23    10     5    1
    24    21    16   ar
    25    25    18    1
    26     2     3    1
    27     2     4    1
@<TRIPOS>MOLECULE
*****
 25 27 0 0 0
SMALL
GASTEIGER

@<TRIPOS>ATOM
      1 C          63.5831   84.7998   13.3037 C.3     1  UNL1        0.1330
      2 N          65.0590   84.6293   13.5101 N.3     1  UNL1       -0.3148
      3 H          65.2226   83.9258   14.2303 H       1  UNL1        0.1192
      4 H          65.4661   85.5173   13.8036 H       1  UNL1        0.1192
      5 C          62.9364   81.8221   12.5755 C.3     1  UNL1        0.1701
      6 C          62.3715   80.4326   12.5695 C.3     1  UNL1        0.0726
      7 C          61.4166   80.3154   13.7203 C.3     1  UNL1        0.1834
      8 F          60.6258   79.0954   14.0891 F       1  UNL1       -0.2354
      9 C          61.3912   81.6326   14.4375 C.3     1  UNL1        0.1296
     10 N          62.3306   82.5637   13.7300 N.am    1  UNL1       -0.2645
     11 C          62.6142   83.9868   14.1102 C.2     1  UNL1        0.2408
     12 O          61.9290   84.5969   15.2970 O.2     1  UNL1       -0.2734
     13 N          64.9281   82.9244   10.6215 N.1     1  UNL1       -0.1942
     14 C          63.9322   82.3732   11.5985 C.1     1  UNL1        0.0926
     15 C          63.0760   85.7831   12.2909 C.3     1  UNL1        0.0518
     16 C          63.2349   87.2554   12.5301 C.ar    1  UNL1       -0.0109
     17 C          63.9630   87.7431   13.7474 C.ar    1  UNL1        0.0365
     18 C          64.1219   89.2153   13.9867 C.ar    1  UNL1        0.1761
     19 C          63.5527   90.1999   13.0085 C.ar    1  UNL1        0.1769
     20 C          62.8246   89.7122   11.7912 C.ar    1  UNL1        0.0466
     21 C          62.6657   88.2399   11.5520 C.ar    1  UNL1        0.0339
     22 BR         61.9376   87.7521   10.3345 Br      1  UNL1       -0.0492
     23 O          63.8638   91.5803   13.5061 O.3     1  UNL1       -0.4346
     24 C          64.6253   91.4489   14.7917 C.3     1  UNL1        0.4294
     25 O          64.7848   89.9873   15.0887 O.3     1  UNL1       -0.4346
@<TRIPOS>BOND
     1    13    14    3
     2     5    14    1
     3     5     6    1
     4     6     7    1
     5     7     8    1
     6     7     9    1
     7     9    10    1
     8    10    11   am
     9    11    12    2
    10    11     1    1
    11     1     2    1
    12     1    15    1
    13    15    16    1
    14    16    17   ar
    15    17    18   ar
    16    18    19   ar
    17    19    20   ar
    18    20    21   ar
    19    21    22    1
    20    19    23    1
    21    23    24    1
    22    24    25    1
    23    10     5    1
    24    21    16   ar
    25    25    18    1
    26     2     3    1
    27     2     4    1
@<TRIPOS>MOLECULE
*****
 25 27 0 0 0
SMALL
GASTEIGER

@<TRIPOS>ATOM
      1 C          62.6783   89.6722   12.3541 C.3     1  UNL1        0.1330
      2 N          61.2814   90.0879   12.7093 N.3     1  UNL1       -0.3148
      3 H          60.8139   89.3251   13.1992 H       1  UNL1        0.1192
      4 H          60.7663   90.3114   11.8578 H       1  UNL1        0.1192
      5 C          61.8145   87.1189   10.7573 C.3     1  UNL1        0.1701
      6 C          61.6540   85.7055   10.2816 C.3     1  UNL1        0.0726
      7 C          62.4767   84.8209   11.1707 C.3     1  UNL1        0.1834
      8 F          62.6075   83.3311   11.0550 F       1  UNL1       -0.2354
      9 C          63.1458   85.6876   12.1960 C.3     1  UNL1        0.1296
     10 N          62.7365   87.1079   11.9404 N.am    1  UNL1       -0.2645
     11 C          63.1727   88.3067   12.7296 C.2     1  UNL1        0.2408
     12 O          64.1033   88.1400   13.8942 O.2     1  UNL1       -0.2734
     13 N          60.5192   89.5424    9.5537 N.1     1  UNL1       -0.1942
     14 C          61.1669   88.3306   10.1555 C.1     1  UNL1        0.0926
     15 C          63.5806   90.6219   11.6235 C.3     1  UNL1        0.0518
     16 C          64.5690   91.4537   12.3859 C.ar    1  UNL1       -0.0109
     17 C          64.8135   91.1823   13.8408 C.ar    1  UNL1        0.0365
     18 C          65.8018   92.0141   14.6032 C.ar    1  UNL1        0.1761
     19 C          66.5457   93.1173   13.9107 C.ar    1  UNL1        0.1769
     20 C          66.3013   93.3888   12.4559 C.ar    1  UNL1        0.0466
     21 C          65.3129   92.5569   11.6935 C.ar    1  UNL1        0.0339
     22 BR         65.0684   92.8284   10.2386 Br      1  UNL1       -0.0492
     23 O          67.4526   93.7659   14.9142 O.3     1  UNL1       -0.4346
     24 C          67.2691   93.0635   16.2268 C.3     1  UNL1        0.4294
     25 O          66.2489   91.9808   16.0346 O.3     1  UNL1       -0.4346
@<TRIPOS>BOND
     1    13    14    3
     2     5    14    1
     3     5     6    1
     4     6     7    1
     5     7     8    1
     6     7     9    1
     7     9    10    1
     8    10    11   am
     9    11    12    2
    10    11     1    1
    11     1     2    1
    12     1    15    1
    13    15    16    1
    14    16    17   ar
    15    17    18   ar
    16    18    19   ar
    17    19    20   ar
    18    20    21   ar
    19    21    22    1
    20    19    23    1
    21    23    24    1
    22    24    25    1
    23    10     5    1
    24    21    16   ar
    25    25    18    1
    26     2     3    1
    27     2     4    1
@<TRIPOS>MOLECULE
*****
 25 27 0 0 0
SMALL
GASTEIGER

@<TRIPOS>ATOM
      1 C          63.2042   90.0581   13.2093 C.3     1  UNL1        0.1330
      2 N          62.4001   90.0110   14.4747 N.3     1  UNL1       -0.3148
      3 H          61.4206   89.8377   14.2489 H       1  UNL1        0.1192
      4 H          62.4836   90.9021   14.9640 H       1  UNL1        0.1192
      5 C          62.8009   87.2045   11.9808 C.3     1  UNL1        0.1701
      6 C          62.4251   86.0665   11.0788 C.3     1  UNL1        0.0726
      7 C          61.7467   86.6381    9.8693 C.3     1  UNL1        0.1834
      8 F          61.2066   85.8557    8.7091 F       1  UNL1       -0.2354
      9 C          61.7031   88.1295   10.0238 C.3     1  UNL1        0.1296
     10 N          62.3546   88.4795   11.3287 N.am    1  UNL1       -0.2645
     11 C          62.5293   89.8620   11.8841 C.2     1  UNL1        0.2408
     12 O          62.0290   91.0482   11.1144 O.2     1  UNL1       -0.2734
     13 N          64.1994   86.9716   14.6246 N.1     1  UNL1       -0.1942
     14 C          63.5001   87.0880   13.3027 C.1     1  UNL1        0.0926
     15 C          64.6831   90.3014   13.2690 C.3     1  UNL1        0.0518
     16 C          65.2392   91.6399   12.8824 C.ar    1  UNL1       -0.0109
     17 C          65.1734   92.0954   11.4548 C.ar    1  UNL1        0.0365
     18 C          65.7294   93.4338   11.0682 C.ar    1  UNL1        0.1761
     19 C          66.3513   94.3167   12.1092 C.ar    1  UNL1        0.1769
     20 C          66.4171   93.8612   13.5368 C.ar    1  UNL1        0.0466
     21 C          65.8611   92.5227   13.9234 C.ar    1  UNL1        0.0339
     22 BR         65.9269   92.0672   15.3511 Br      1  UNL1       -0.0492
     23 O          66.8126   95.5746   11.4348 O.3     1  UNL1       -0.4346
     24 C          66.4759   95.4691    9.9769 C.3     1  UNL1        0.4294
     25 O          65.8064   94.1460    9.7503 O.3     1  UNL1       -0.4346
@<TRIPOS>BOND
     1    13    14    3
     2     5    14    1
     3     5     6    1
     4     6     7    1
     5     7     8    1
     6     7     9    1
     7     9    10    1
     8    10    11   am
     9    11    12    2
    10    11     1    1
    11     1     2    1
    12     1    15    1
    13    15    16    1
    14    16    17   ar
    15    17    18   ar
    16    18    19   ar
    17    19    20   ar
    18    20    21   ar
    19    21    22    1
    20    19    23    1
    21    23    24    1
    22    24    25    1
    23    10     5    1
    24    21    16   ar
    25    25    18    1
    26     2     3    1
    27     2     4    1
@<TRIPOS>MOLECULE
*****
 25 27 0 0 0
SMALL
GASTEIGER

@<TRIPOS>ATOM
      1 C          63.0486   85.2885   12.4105 C.3     1  UNL1        0.1330
      2 N          64.0074   85.6755   13.4973 N.3     1  UNL1       -0.3148
      3 H          64.6786   84.9214   13.6430 H       1  UNL1        0.1192
      4 H          63.4920   85.8436   14.3613 H       1  UNL1        0.1192
      5 C          62.3346   82.6166   13.8825 C.3     1  UNL1        0.1701
      6 C          62.1106   81.1702   14.2103 C.3     1  UNL1        0.0726
      7 C          62.4682   80.3597   12.9998 C.3     1  UNL1        0.1834
      8 F          62.3938   78.8660   12.8854 F       1  UNL1       -0.2354
      9 C          62.9132   81.3053   11.9238 C.3     1  UNL1        0.1296
     10 N          62.8306   82.7001   12.4693 N.am    1  UNL1       -0.2645
     11 C          63.1824   83.9578   11.7312 C.2     1  UNL1        0.2408
     12 O          63.6680   83.8847   10.3139 O.2     1  UNL1       -0.2734
     13 N          61.8717   84.9354   15.7288 N.1     1  UNL1       -0.1942
     14 C          62.1032   83.7760   14.8056 C.1     1  UNL1        0.0926
     15 C          61.9561   86.2320   12.0030 C.3     1  UNL1        0.0518
     16 C          62.2990   87.5967   11.4831 C.ar    1  UNL1       -0.0109
     17 C          63.0758   88.5521   12.3396 C.ar    1  UNL1        0.0365
     18 C          63.4187   89.9167   11.8197 C.ar    1  UNL1        0.1761
     19 C          62.9848   90.3259   10.4434 C.ar    1  UNL1        0.1769
     20 C          62.2080   89.3704    9.5869 C.ar    1  UNL1        0.0466
     21 C          61.8651   88.0058   10.1068 C.ar    1  UNL1        0.0339
     22 BR         61.0882   87.0502    9.2503 Br      1  UNL1       -0.0492
     23 O          63.4655   91.7263   10.2029 O.3     1  UNL1       -0.4346
     24 C          64.1966   92.1826   11.4306 C.3     1  UNL1        0.4294
     25 O          64.1677   91.0643   12.4299 O.3     1  UNL1       -0.4346
@<TRIPOS>BOND
     1    13    14    3
     2     5    14    1
     3     5     6    1
     4     6     7    1
     5     7     8    1
     6     7     9    1
     7     9    10    1
     8    10    11   am
     9    11    12    2
    10    11     1    1
    11     1     2    1
    12     1    15    1
    13    15    16    1
    14    16    17   ar
    15    17    18   ar
    16    18    19   ar
    17    19    20   ar
    18    20    21   ar
    19    21    22    1
    20    19    23    1
    21    23    24    1
    22    24    25    1
    23    10     5    1
    24    21    16   ar
    25    25    18    1
    26     2     3    1
    27     2     4    1
