@<TRIPOS>MOLECULE
*****
 20 21 0 0 0
SMALL
GASTEIGER

@<TRIPOS>ATOM
      1 C          66.2673   93.5587   10.6806 C.2     1  UNL1        0.1535
      2 N          66.9115   93.9682   11.9718 N.2     1  UNL1       -0.2470
      3 C          66.2560   93.2001   13.0810 C.3     1  UNL1        0.1723
      4 C          66.4790   93.1916   14.5643 C.3     1  UNL1        0.1701
      5 C          65.6527   92.2988   15.4419 C.3     1  UNL1        0.1691
      6 O          65.8757   92.2904   16.9252 O.3     1  UNL1       -0.3794
      7 C          64.6033   91.4146   14.8362 C.3     1  UNL1        0.1746
      8 O          64.3803   91.4230   13.3529 O.3     1  UNL1       -0.3402
      9 C          65.2066   92.3158   12.4753 C.3     1  UNL1        0.1938
     10 S          65.2137   92.5374   10.9918 S.3     1  UNL1       -0.0497
     11 H          66.5841   92.9141   17.1492 H       1  UNL1        0.2105
     12 C          63.7770   90.5218   15.7138 C.3     1  UNL1        0.1693
     13 O          63.2187   91.0462   17.0035 O.3     1  UNL1       -0.3794
     14 H          63.9462   91.2452   17.6135 H       1  UNL1        0.2105
     15 N          66.6156   94.0790    9.3175 N.pl3   1  UNL1       -0.3135
     16 H          65.9533   94.5952    8.8037 H       1  UNL1        0.1487
     17 C          68.6490   92.4966    8.9839 C.3     1  UNL1        0.0230
     18 C          67.9730   93.8128    8.7374 C.3     1  UNL1        0.0887
     19 O          67.5284   94.0759   15.1700 O.3     1  UNL1       -0.3489
     20 C          68.7979   93.4784   15.7002 C.3     1  UNL1        0.1742
@<TRIPOS>BOND
     1    17    18    1
     2    18    15    1
     3    15     1    1
     4     1     2    2
     5     3     2    1
     6     3     4    1
     7     4    19    1
     8    19    20    1
     9     4     5    1
    10     5     6    1
    11     5     7    1
    12     7    12    1
    13    12    13    1
    14     7     8    1
    15     9     8    1
    16     9    10    1
    17    10     1    1
    18     9     3    1
    19    15    16    1
    20     6    11    1
    21    13    14    1
@<TRIPOS>MOLECULE
*****
 20 21 0 0 0
SMALL
GASTEIGER

@<TRIPOS>ATOM
      1 C          66.5269   93.4628   11.0645 C.2     1  UNL1        0.1535
      2 N          65.2922   92.7577   10.5867 N.2     1  UNL1       -0.2470
      3 C          64.6885   92.0367   11.7553 C.3     1  UNL1        0.1723
      4 C          63.4656   91.1773   11.8817 C.3     1  UNL1        0.1701
      5 C          63.1043   90.5775   13.2083 C.3     1  UNL1        0.1691
      6 O          61.8814   89.7182   13.3347 O.3     1  UNL1       -0.3794
      7 C          63.9658   90.8371   14.4084 C.3     1  UNL1        0.1746
      8 O          65.1888   91.6965   14.2819 O.3     1  UNL1       -0.3402
      9 C          65.5501   92.2962   12.9554 C.3     1  UNL1        0.1938
     10 S          66.6863   93.1777   12.5285 S.3     1  UNL1       -0.0497
     11 H          61.4417   89.6527   12.4725 H       1  UNL1        0.2105
     12 C          63.6045   90.2373   15.7349 C.3     1  UNL1        0.1693
     13 O          63.3115   91.1279   16.9058 O.3     1  UNL1       -0.3794
     14 H          64.1170   91.6061   17.1579 H       1  UNL1        0.2105
     15 N          67.4416   94.3053   10.2256 N.pl3   1  UNL1       -0.3135
     16 H          67.6465   95.2292   10.4968 H       1  UNL1        0.1487
     17 C          68.7361   92.4096    9.0088 C.3     1  UNL1        0.0230
     18 C          68.0440   93.7400    8.9736 C.3     1  UNL1        0.0887
     19 O          62.6041   90.9178   10.6816 O.3     1  UNL1       -0.3489
     20 C          62.5154   89.5351   10.1068 C.3     1  UNL1        0.1742
@<TRIPOS>BOND
     1    17    18    1
     2    18    15    1
     3    15     1    1
     4     1     2    2
     5     3     2    1
     6     3     4    1
     7     4    19    1
     8    19    20    1
     9     4     5    1
    10     5     6    1
    11     5     7    1
    12     7    12    1
    13    12    13    1
    14     7     8    1
    15     9     8    1
    16     9    10    1
    17    10     1    1
    18     9     3    1
    19    15    16    1
    20     6    11    1
    21    13    14    1
@<TRIPOS>MOLECULE
*****
 20 21 0 0 0
SMALL
GASTEIGER

@<TRIPOS>ATOM
      1 C          59.4783   88.5961    7.6184 C.2     1  UNL1        0.1535
      2 N          60.2590   89.4036    8.6127 N.2     1  UNL1       -0.2470
      3 C          60.9321   88.4518    9.5566 C.3     1  UNL1        0.1723
      4 C          61.8300   88.6757   10.7371 C.3     1  UNL1        0.1701
      5 C          62.3632   87.5038   11.5068 C.3     1  UNL1        0.1691
      6 O          63.2611   87.7277   12.6873 O.3     1  UNL1       -0.3794
      7 C          61.9986   86.1080   11.0959 C.3     1  UNL1        0.1746
      8 O          61.1008   85.8841    9.9152 O.3     1  UNL1       -0.3402
      9 C          60.5675   87.0560    9.1456 C.3     1  UNL1        0.1938
     10 S          59.6690   87.1452    7.9478 S.3     1  UNL1       -0.0497
     11 H          63.3952   88.6798   12.8155 H       1  UNL1        0.2105
     12 C          62.5319   84.9362   11.8655 C.3     1  UNL1        0.1693
     13 O          62.5392   84.9644   13.3652 O.3     1  UNL1       -0.3794
     14 H          63.1504   85.6522   13.6726 H       1  UNL1        0.2105
     15 N          58.6521   89.1435    6.4924 N.pl3   1  UNL1       -0.3135
     16 H          57.8197   88.6897    6.2269 H       1  UNL1        0.1487
     17 C          58.0753   91.2975    5.1592 C.3     1  UNL1        0.0230
     18 C          59.0940   90.3821    5.7711 C.3     1  UNL1        0.0887
     19 O          62.1945   90.0715   11.1480 O.3     1  UNL1       -0.3489
     20 C          63.1024   90.8949   10.2834 C.3     1  UNL1        0.1742
@<TRIPOS>BOND
     1    17    18    1
     2    18    15    1
     3    15     1    1
     4     1     2    2
     5     3     2    1
     6     3     4    1
     7     4    19    1
     8    19    20    1
     9     4     5    1
    10     5     6    1
    11     5     7    1
    12     7    12    1
    13    12    13    1
    14     7     8    1
    15     9     8    1
    16     9    10    1
    17    10     1    1
    18     9     3    1
    19    15    16    1
    20     6    11    1
    21    13    14    1
@<TRIPOS>MOLECULE
*****
 20 21 0 0 0
SMALL
GASTEIGER

@<TRIPOS>ATOM
      1 C          66.2456   92.7154   13.4273 C.2     1  UNL1        0.1535
      2 N          65.2629   91.8797   14.1928 N.2     1  UNL1       -0.2470
      3 C          64.2617   91.3328   13.2189 C.3     1  UNL1        0.1723
      4 C          63.0657   90.4460   13.4006 C.3     1  UNL1        0.1701
      5 C          62.2335   90.0567   12.2148 C.3     1  UNL1        0.1691
      6 O          61.0375   89.1699   12.3966 O.3     1  UNL1       -0.3794
      7 C          62.5973   90.5544   10.8474 C.3     1  UNL1        0.1746
      8 O          63.7934   91.4413   10.6657 O.3     1  UNL1       -0.3402
      9 C          64.6255   91.8305   11.8515 C.3     1  UNL1        0.1938
     10 S          65.8516   92.6849   11.9802 S.3     1  UNL1       -0.0497
     11 H          60.9445   88.9406   13.3345 H       1  UNL1        0.2105
     12 C          61.7652   90.1652    9.6616 C.3     1  UNL1        0.1693
     13 O          60.2705   90.2737    9.7262 O.3     1  UNL1       -0.3794
     14 H          59.9284   89.6427   10.3787 H       1  UNL1        0.2105
     15 N          67.4165   93.4521   14.0070 N.pl3   1  UNL1       -0.3135
     16 H          68.0256   93.9512   13.4161 H       1  UNL1        0.1487
     17 C          68.3448   92.2516   16.1158 C.3     1  UNL1        0.0230
     18 C          67.6595   93.4284   15.4869 C.3     1  UNL1        0.0887
     19 O          62.7018   89.9483   14.7681 O.3     1  UNL1       -0.3489
     20 C          63.6409   89.0460   15.5123 C.3     1  UNL1        0.1742
@<TRIPOS>BOND
     1    17    18    1
     2    18    15    1
     3    15     1    1
     4     1     2    2
     5     3     2    1
     6     3     4    1
     7     4    19    1
     8    19    20    1
     9     4     5    1
    10     5     6    1
    11     5     7    1
    12     7    12    1
    13    12    13    1
    14     7     8    1
    15     9     8    1
    16     9    10    1
    17    10     1    1
    18     9     3    1
    19    15    16    1
    20     6    11    1
    21    13    14    1
@<TRIPOS>MOLECULE
*****
 20 21 0 0 0
SMALL
GASTEIGER

@<TRIPOS>ATOM
      1 C          63.1971   85.4608   12.5320 C.2     1  UNL1        0.1535
      2 N          63.0539   86.9533   12.4884 N.2     1  UNL1       -0.2470
      3 C          62.1546   87.2993   11.3389 C.3     1  UNL1        0.1723
      4 C          61.6581   88.6135   10.8133 C.3     1  UNL1        0.1701
      5 C          60.7489   88.6491    9.6207 C.3     1  UNL1        0.1691
      6 O          60.2524   89.9633    9.0951 O.3     1  UNL1       -0.3794
      7 C          60.3362   87.3705    8.9538 C.3     1  UNL1        0.1746
      8 O          60.8328   86.0562    9.4795 O.3     1  UNL1       -0.3402
      9 C          61.7419   86.0207   10.6720 C.3     1  UNL1        0.1938
     10 S          62.3863   84.8844   11.4094 S.3     1  UNL1       -0.0497
     11 H          60.6106   90.6842    9.6363 H       1  UNL1        0.2105
     12 C          59.4271   87.4060    7.7612 C.3     1  UNL1        0.1693
     13 O          58.1680   86.5907    7.7534 O.3     1  UNL1       -0.3794
     14 H          58.3937   85.6473    7.7575 H       1  UNL1        0.2105
     15 N          64.0087   84.6815   13.5240 N.pl3   1  UNL1       -0.3135
     16 H          64.9584   84.4943   13.3443 H       1  UNL1        0.1487
     17 C          62.4754   82.9862   14.7588 C.3     1  UNL1        0.0230
     18 C          63.3733   84.1873   14.7897 C.3     1  UNL1        0.0887
     19 O          62.0707   89.8922   11.4802 O.3     1  UNL1       -0.3489
     20 C          63.1025   90.7729   10.8401 C.3     1  UNL1        0.1742
@<TRIPOS>BOND
     1    17    18    1
     2    18    15    1
     3    15     1    1
     4     1     2    2
     5     3     2    1
     6     3     4    1
     7     4    19    1
     8    19    20    1
     9     4     5    1
    10     5     6    1
    11     5     7    1
    12     7    12    1
    13    12    13    1
    14     7     8    1
    15     9     8    1
    16     9    10    1
    17    10     1    1
    18     9     3    1
    19    15    16    1
    20     6    11    1
    21    13    14    1
@<TRIPOS>MOLECULE
*****
 20 21 0 0 0
SMALL
GASTEIGER

@<TRIPOS>ATOM
      1 C          61.7928   89.0999   11.5403 C.2     1  UNL1        0.1535
      2 N          62.6587   89.3440   12.7406 N.2     1  UNL1       -0.2470
      3 C          63.5848   90.4798   12.4208 C.3     1  UNL1        0.1723
      4 C          64.6574   91.1563   13.2220 C.3     1  UNL1        0.1701
      5 C          65.4365   92.2907   12.6252 C.3     1  UNL1        0.1691
      6 O          66.5092   92.9671   13.4263 O.3     1  UNL1       -0.3794
      7 C          65.1430   92.7486   11.2273 C.3     1  UNL1        0.1746
      8 O          64.0703   92.0721   10.4261 O.3     1  UNL1       -0.3402
      9 C          63.2912   90.9377   11.0229 C.3     1  UNL1        0.1938
     10 S          62.1838   90.0849   10.4787 S.3     1  UNL1       -0.0497
     11 H          66.5694   92.5525   14.3012 H       1  UNL1        0.2105
     12 C          65.9221   93.8830   10.6305 C.3     1  UNL1        0.1693
     13 O          67.4183   93.9022   10.7352 O.3     1  UNL1       -0.3794
     14 H          67.6762   93.9998   11.6652 H       1  UNL1        0.2105
     15 N          60.7237   88.0544   11.4223 N.pl3   1  UNL1       -0.3135
     16 H          59.8177   88.2363   11.7618 H       1  UNL1        0.1487
     17 C          62.0625   85.8279   11.4015 C.3     1  UNL1        0.0230
     18 C          61.0350   86.7317   10.7871 C.3     1  UNL1        0.0887
     19 O          64.9509   90.6983   14.6199 O.3     1  UNL1       -0.3489
     20 C          63.9817   90.9952   15.7254 C.3     1  UNL1        0.1742
@<TRIPOS>BOND
     1    17    18    1
     2    18    15    1
     3    15     1    1
     4     1     2    2
     5     3     2    1
     6     3     4    1
     7     4    19    1
     8    19    20    1
     9     4     5    1
    10     5     6    1
    11     5     7    1
    12     7    12    1
    13    12    13    1
    14     7     8    1
    15     9     8    1
    16     9    10    1
    17    10     1    1
    18     9     3    1
    19    15    16    1
    20     6    11    1
    21    13    14    1
@<TRIPOS>MOLECULE
*****
 20 21 0 0 0
SMALL
GASTEIGER

@<TRIPOS>ATOM
      1 C          62.0997   86.7518   10.4920 C.2     1  UNL1        0.1535
      2 N          62.4891   86.8588   11.9366 N.2     1  UNL1       -0.2470
      3 C          62.7981   85.4789   12.4370 C.3     1  UNL1        0.1723
      4 C          63.2346   84.9725   13.7797 C.3     1  UNL1        0.1701
      5 C          63.4726   83.5060   13.9871 C.3     1  UNL1        0.1691
      6 O          63.9090   82.9995   15.3298 O.3     1  UNL1       -0.3794
      7 C          63.2741   82.5461   12.8517 C.3     1  UNL1        0.1746
      8 O          62.8376   83.0526   11.5089 O.3     1  UNL1       -0.3402
      9 C          62.5996   84.5190   11.3016 C.3     1  UNL1        0.1938
     10 S          62.1680   85.3057   10.0996 S.3     1  UNL1       -0.0497
     11 H          63.9892   83.7445   15.9459 H       1  UNL1        0.2105
     12 C          63.5120   81.0797   13.0590 C.3     1  UNL1        0.1693
     13 O          63.0297   80.4114   14.3123 O.3     1  UNL1       -0.3794
     14 H          63.5155   80.7640   15.0743 H       1  UNL1        0.2105
     15 N          61.7103   87.8908    9.5971 N.pl3   1  UNL1       -0.3135
     16 H          62.4042   88.4725    9.2105 H       1  UNL1        0.1487
     17 C          59.5770   87.3592    8.2128 C.3     1  UNL1        0.0230
     18 C          60.2638   88.1437    9.2912 C.3     1  UNL1        0.0887
     19 O          63.4331   85.9324   14.9151 O.3     1  UNL1       -0.3489
     20 C          64.6055   86.8679   14.9100 C.3     1  UNL1        0.1742
@<TRIPOS>BOND
     1    17    18    1
     2    18    15    1
     3    15     1    1
     4     1     2    2
     5     3     2    1
     6     3     4    1
     7     4    19    1
     8    19    20    1
     9     4     5    1
    10     5     6    1
    11     5     7    1
    12     7    12    1
    13    12    13    1
    14     7     8    1
    15     9     8    1
    16     9    10    1
    17    10     1    1
    18     9     3    1
    19    15    16    1
    20     6    11    1
    21    13    14    1
@<TRIPOS>MOLECULE
*****
 20 21 0 0 0
SMALL
GASTEIGER

@<TRIPOS>ATOM
      1 C          62.2810   90.5281   10.5562 C.2     1  UNL1        0.1535
      2 N          63.4838   91.3349   10.1657 N.2     1  UNL1       -0.2470
      3 C          64.2475   91.6627   11.4145 C.3     1  UNL1        0.1723
      4 C          65.5139   92.4333   11.6433 C.3     1  UNL1        0.1701
      5 C          66.0496   92.5997   13.0345 C.3     1  UNL1        0.1691
      6 O          67.3160   93.3703   13.2634 O.3     1  UNL1       -0.3794
      7 C          65.3188   91.9955   14.1968 C.3     1  UNL1        0.1746
      8 O          64.0523   91.2249   13.9679 O.3     1  UNL1       -0.3402
      9 C          63.5167   91.0585   12.5768 C.3     1  UNL1        0.1938
     10 S          62.3014   90.3573   12.0463 S.3     1  UNL1       -0.0497
     11 H          67.6576   93.6905   12.4139 H       1  UNL1        0.2105
     12 C          65.8544   92.1619   15.5880 C.3     1  UNL1        0.1693
     13 O          65.0321   92.8610   16.6297 O.3     1  UNL1       -0.3794
     14 H          64.9245   93.7933   16.3846 H       1  UNL1        0.2105
     15 N          61.2406   89.9872    9.6209 N.pl3   1  UNL1       -0.3135
     16 H          60.7592   90.5958    9.0149 H       1  UNL1        0.1487
     17 C          62.0508   87.5196    9.5550 C.3     1  UNL1        0.0230
     18 C          60.9336   88.5190    9.6087 C.3     1  UNL1        0.0887
     19 O          66.2447   93.0375   10.4810 O.3     1  UNL1       -0.3489
     20 C          67.5454   92.4467   10.0239 C.3     1  UNL1        0.1742
@<TRIPOS>BOND
     1    17    18    1
     2    18    15    1
     3    15     1    1
     4     1     2    2
     5     3     2    1
     6     3     4    1
     7     4    19    1
     8    19    20    1
     9     4     5    1
    10     5     6    1
    11     5     7    1
    12     7    12    1
    13    12    13    1
    14     7     8    1
    15     9     8    1
    16     9    10    1
    17    10     1    1
    18     9     3    1
    19    15    16    1
    20     6    11    1
    21    13    14    1
@<TRIPOS>MOLECULE
*****
 20 21 0 0 0
SMALL
GASTEIGER

@<TRIPOS>ATOM
      1 C          62.7645   89.9784   12.6670 C.2     1  UNL1        0.1535
      2 N          62.9849   88.5468   12.2771 N.2     1  UNL1       -0.2470
      3 C          62.1305   88.2558   11.0791 C.3     1  UNL1        0.1723
      4 C          61.9374   87.0128   10.2621 C.3     1  UNL1        0.1701
      5 C          60.9957   87.0215    9.0945 C.3     1  UNL1        0.1691
      6 O          60.8026   85.7784    8.2775 O.3     1  UNL1       -0.3794
      7 C          60.2473   88.2732    8.7438 C.3     1  UNL1        0.1746
      8 O          60.4405   89.5163    9.5609 O.3     1  UNL1       -0.3402
      9 C          61.3821   89.5076   10.7285 C.3     1  UNL1        0.1938
     10 S          61.7740   90.5722   11.7099 S.3     1  UNL1       -0.0497
     11 H          61.3558   85.0668    8.6358 H       1  UNL1        0.2105
     12 C          59.3057   88.2820    7.5763 C.3     1  UNL1        0.1693
     13 O          58.3071   87.1751    7.4098 O.3     1  UNL1       -0.3794
     14 H          58.7734   86.3424    7.2361 H       1  UNL1        0.2105
     15 N          63.4197   90.6910   13.8128 N.pl3   1  UNL1       -0.3135
     16 H          63.4377   91.6751   13.8349 H       1  UNL1        0.1487
     17 C          63.2477   89.5642   16.1475 C.3     1  UNL1        0.0230
     18 C          64.0475   89.9044   14.9250 C.3     1  UNL1        0.0887
     19 O          62.6858   85.7610   10.6127 O.3     1  UNL1       -0.3489
     20 C          62.3479   85.0116   11.8673 C.3     1  UNL1        0.1742
@<TRIPOS>BOND
     1    17    18    1
     2    18    15    1
     3    15     1    1
     4     1     2    2
     5     3     2    1
     6     3     4    1
     7     4    19    1
     8    19    20    1
     9     4     5    1
    10     5     6    1
    11     5     7    1
    12     7    12    1
    13    12    13    1
    14     7     8    1
    15     9     8    1
    16     9    10    1
    17    10     1    1
    18     9     3    1
    19    15    16    1
    20     6    11    1
    21    13    14    1
