@<TRIPOS>MOLECULE
*****
 42 48 0 0 0
SMALL
GASTEIGER

@<TRIPOS>ATOM
      1 N          72.2797   77.8393   11.1638 N.pl3   1  UNL1       -0.2841
      2 C          71.7972   76.4202   11.1078 C.3     1  UNL1        0.1175
      3 C          71.6287   75.6347   12.3745 C.3     1  UNL1        0.1215
      4 N          71.9427   76.2684   13.6973 N.am    1  UNL1       -0.2403
      5 C          71.7742   75.4829   14.9640 C.2     1  UNL1        0.3078
      6 O          72.0882   76.1166   16.2869 O.2     1  UNL1       -0.2522
      7 N          71.2917   74.0637   14.9080 N.am    1  UNL1       -0.2901
      8 C          72.4252   77.6876   13.7534 C.ar    1  UNL1        0.0689
      9 C          72.7392   78.3213   15.0762 C.ar    1  UNL1        0.0162
     10 C          73.2216   79.7404   15.1323 C.ar    1  UNL1        0.0014
     11 C          73.3902   80.5259   13.8656 C.ar    1  UNL1        0.0014
     12 C          73.0762   79.8922   12.5427 C.ar    1  UNL1        0.0161
     13 C          72.5937   78.4731   12.4867 C.ar    1  UNL1        0.0655
     14 H          71.0856   73.6478   14.0398 H       1  UNL1        0.1509
     15 C          71.1232   73.2783   16.1747 C.3     1  UNL1        0.0731
     16 C          71.2847   71.7870   16.1596 C.3     1  UNL1        0.0204
     17 C          70.9547   72.4928   17.4414 C.3     1  UNL1        0.0018
     18 C          70.7861   71.7073   18.7082 C.3     1  UNL1        0.0024
     19 C          70.6247   73.1985   18.7232 C.3     1  UNL1        0.0018
     20 C          70.7932   73.9840   17.4565 C.3     1  UNL1        0.0204
     21 C          70.9939   70.7787   18.1600 C.3     1  UNL1        0.0285
     22 C          71.2776   69.5104   17.4113 C.3     1  UNL1        0.0884
     23 O          71.4391   68.0192   17.3962 O.3     1  UNL1       -0.3867
     24 C          70.9476   70.2160   18.6931 C.3     1  UNL1        0.0269
     25 C          71.4462   70.2958   16.1445 C.3     1  UNL1        0.0285
     26 H          71.2985   67.6697   18.2901 H       1  UNL1        0.2102
     27 C          72.7853   80.1958    7.3636 C.ar    1  UNL1        0.0480
     28 C          71.8120   80.6564    8.4079 C.ar    1  UNL1        0.0158
     29 C          71.6434   79.8709    9.6746 C.ar    1  UNL1        0.0161
     30 C          72.4482   78.6248    9.8971 C.ar    1  UNL1        0.0517
     31 C          73.4216   78.1642    8.8528 C.ar    1  UNL1        0.0161
     32 C          73.5901   78.9497    7.5861 C.ar    1  UNL1        0.0158
     33 N          73.2908   82.5522    3.5634 N.3     1  UNL1       -0.1559
     34 C          72.7802   83.2270    4.8020 C.3     1  UNL1        0.1168
     35 C          72.6117   82.4415    6.0688 C.3     1  UNL1        0.1099
     36 N          72.9538   80.9813    6.0969 N.pl3   1  UNL1       -0.3045
     37 C          73.4643   80.3066    4.8583 C.3     1  UNL1        0.1099
     38 C          73.6328   81.0921    3.5916 C.3     1  UNL1        0.1168
     39 C          73.6278   84.1232    1.0299 C.3     1  UNL1        0.1960
     40 S          73.4593   83.3377    2.2967 S.O2    1  UNL1        0.0458
     41 O          73.6325   82.0612    1.5282 O.2     1  UNL1       -0.1572
     42 O          73.2862   84.6142    3.0652 O.2     1  UNL1       -0.1572
@<TRIPOS>BOND
     1    39    40    1
     2    40    41    2
     3    40    42    2
     4    40    33    1
     5    33    34    1
     6    34    35    1
     7    35    36    1
     8    36    27    1
     9    27    28   ar
    10    28    29   ar
    11    29    30   ar
    12    30     1    1
    13     1     2    1
    14     2     3    1
    15     3     4    1
    16     4     5   am
    17     5     6    2
    18     5     7   am
    19    15     7    1
    20    15    16    1
    21    16    17    1
    22    17    18    1
    23    18    19    1
    24    19    20    1
    25    20    21    1
    26    21    22    1
    27    22    23    1
    28    22    24    1
    29    22    25    1
    30     4     8    1
    31     8     9   ar
    32     9    10   ar
    33    10    11   ar
    34    11    12   ar
    35    12    13   ar
    36    30    31   ar
    37    31    32   ar
    38    36    37    1
    39    37    38    1
    40    38    33    1
    41    32    27   ar
    42    13     1    1
    43    20    15    1
    44    13     8   ar
    45    25    16    1
    46    24    18    1
    47     7    14    1
    48    23    26    1
@<TRIPOS>MOLECULE
*****
 42 48 0 0 0
SMALL
GASTEIGER

@<TRIPOS>ATOM
      1 N          59.1225   92.8507    1.7749 N.pl3   1  UNL1       -0.2841
      2 C          58.2509   92.2618    0.7056 C.3     1  UNL1        0.1175
      3 C          58.0296   93.0077   -0.5769 C.3     1  UNL1        0.1215
      4 N          58.6800   94.3424   -0.7901 N.am    1  UNL1       -0.2403
      5 C          58.4587   95.0882   -2.0726 C.2     1  UNL1        0.3078
      6 O          59.1092   96.4230   -2.2858 O.2     1  UNL1       -0.2522
      7 N          57.5871   94.4993   -3.1419 N.am    1  UNL1       -0.2901
      8 C          59.5517   94.9313    0.2792 C.ar    1  UNL1        0.0689
      9 C          60.2021   96.2660    0.0660 C.ar    1  UNL1        0.0162
     10 C          61.0738   96.8549    1.1353 C.ar    1  UNL1        0.0014
     11 C          61.2950   96.1091    2.4178 C.ar    1  UNL1        0.0014
     12 C          60.6446   94.7744    2.6310 C.ar    1  UNL1        0.0161
     13 C          59.7730   94.1855    1.5617 C.ar    1  UNL1        0.0655
     14 H          57.1602   93.6233   -3.0019 H       1  UNL1        0.1509
     15 C          57.3658   95.2452   -4.4243 C.3     1  UNL1        0.0731
     16 C          55.9833   95.3633   -4.9943 C.3     1  UNL1        0.0204
     17 C          57.1445   95.9910   -5.7068 C.3     1  UNL1        0.0018
     18 C          56.9233   96.7368   -6.9893 C.3     1  UNL1        0.0024
     19 C          58.3057   96.6187   -6.4193 C.3     1  UNL1        0.0018
     20 C          58.5269   95.8729   -5.1368 C.3     1  UNL1        0.0204
     21 C          55.8482   96.5215   -6.9291 C.3     1  UNL1        0.0285
     22 C          54.3796   96.2272   -6.8468 C.3     1  UNL1        0.0884
     23 O          52.9972   96.3454   -7.4168 O.3     1  UNL1       -0.3867
     24 C          55.5408   96.8549   -7.5593 C.3     1  UNL1        0.0269
     25 C          54.6009   95.4814   -5.5643 C.3     1  UNL1        0.0285
     26 H          53.0301   96.8543   -8.2419 H       1  UNL1        0.2102
     27 C          59.7863   90.6132    5.6223 C.ar    1  UNL1        0.0480
     28 C          60.9482   90.9267    4.7270 C.ar    1  UNL1        0.0158
     29 C          60.7270   91.6726    3.4445 C.ar    1  UNL1        0.0161
     30 C          59.3438   92.1049    3.0574 C.ar    1  UNL1        0.0517
     31 C          58.1818   91.7914    3.9527 C.ar    1  UNL1        0.0161
     32 C          58.4031   91.0455    5.2352 C.ar    1  UNL1        0.0158
     33 N          60.4502   88.3757    9.4698 N.3     1  UNL1       -0.1559
     34 C          59.5944   87.7778    8.3925 C.3     1  UNL1        0.1168
     35 C          59.3732   88.5237    7.1100 C.3     1  UNL1        0.1099
     36 N          60.0076   89.8674    6.9048 N.pl3   1  UNL1       -0.3045
     37 C          60.8633   90.4652    7.9820 C.3     1  UNL1        0.1099
     38 C          61.0845   89.7193    9.2645 C.3     1  UNL1        0.1168
     39 C          60.8927   86.8840   12.0348 C.3     1  UNL1        0.1960
     40 S          60.6714   87.6299   10.7523 S.O2    1  UNL1        0.0458
     41 O          60.4254   88.8901   11.5276 O.2     1  UNL1       -0.1572
     42 O          60.9174   86.3696    9.9769 O.2     1  UNL1       -0.1572
@<TRIPOS>BOND
     1    39    40    1
     2    40    41    2
     3    40    42    2
     4    40    33    1
     5    33    34    1
     6    34    35    1
     7    35    36    1
     8    36    27    1
     9    27    28   ar
    10    28    29   ar
    11    29    30   ar
    12    30     1    1
    13     1     2    1
    14     2     3    1
    15     3     4    1
    16     4     5   am
    17     5     6    2
    18     5     7   am
    19    15     7    1
    20    15    16    1
    21    16    17    1
    22    17    18    1
    23    18    19    1
    24    19    20    1
    25    20    21    1
    26    21    22    1
    27    22    23    1
    28    22    24    1
    29    22    25    1
    30     4     8    1
    31     8     9   ar
    32     9    10   ar
    33    10    11   ar
    34    11    12   ar
    35    12    13   ar
    36    30    31   ar
    37    31    32   ar
    38    36    37    1
    39    37    38    1
    40    38    33    1
    41    32    27   ar
    42    13     1    1
    43    20    15    1
    44    13     8   ar
    45    25    16    1
    46    24    18    1
    47     7    14    1
    48    23    26    1
@<TRIPOS>MOLECULE
*****
 42 48 0 0 0
SMALL
GASTEIGER

@<TRIPOS>ATOM
      1 N          60.8764   90.2866    7.2009 N.pl3   1  UNL1       -0.2841
      2 C          61.9283   90.8769    8.0924 C.3     1  UNL1        0.1175
      3 C          62.2944   90.1921    9.3758 C.3     1  UNL1        0.1215
      4 N          61.6086   88.9169    9.7676 N.am    1  UNL1       -0.2403
      5 C          61.9747   88.2321   11.0510 C.2     1  UNL1        0.3078
      6 O          61.2887   86.9569   11.4428 O.2     1  UNL1       -0.2522
      7 N          63.0266   88.8224   11.9425 N.am    1  UNL1       -0.2901
      8 C          60.5565   88.3265    8.8761 C.ar    1  UNL1        0.0689
      9 C          59.8707   87.0514    9.2679 C.ar    1  UNL1        0.0162
     10 C          58.8187   86.4611    8.3764 C.ar    1  UNL1        0.0014
     11 C          58.4526   87.1459    7.0930 C.ar    1  UNL1        0.0014
     12 C          59.1385   88.4210    6.7012 C.ar    1  UNL1        0.0161
     13 C          60.1904   89.0114    7.5927 C.ar    1  UNL1        0.0655
     14 H          63.4768   89.6594   11.6853 H       1  UNL1        0.1509
     15 C          63.3927   88.1376   13.2258 C.3     1  UNL1        0.0731
     16 C          63.4924   86.6417   13.2758 C.3     1  UNL1        0.0204
     17 C          63.7588   87.4528   14.5092 C.3     1  UNL1        0.0018
     18 C          64.1249   86.7680   15.7926 C.3     1  UNL1        0.0024
     19 C          64.0253   88.2638   15.7426 C.3     1  UNL1        0.0018
     20 C          63.6592   88.9486   14.4592 C.3     1  UNL1        0.0204
     21 C          64.0544   85.7930   15.2924 C.3     1  UNL1        0.0285
     22 C          63.9581   84.4611   14.6091 C.3     1  UNL1        0.0884
     23 O          64.0578   82.9653   14.6591 O.3     1  UNL1       -0.3867
     24 C          64.2246   85.2721   15.8425 C.3     1  UNL1        0.0269
     25 C          63.5920   85.1459   13.3258 C.3     1  UNL1        0.0285
     26 H          64.3019   82.6873   15.5558 H       1  UNL1        0.2102
     27 C          59.7781   92.3410    3.3508 C.ar    1  UNL1        0.0480
     28 C          58.7282   92.0875    4.3917 C.ar    1  UNL1        0.0158
     29 C          59.0943   91.4027    5.6750 C.ar    1  UNL1        0.0161
     30 C          60.5103   90.9714    5.9176 C.ar    1  UNL1        0.0517
     31 C          61.5603   91.2249    4.8767 C.ar    1  UNL1        0.0161
     32 C          61.1942   91.9097    3.5933 C.ar    1  UNL1        0.0158
     33 N          58.6798   94.3955   -0.4992 N.3     1  UNL1       -0.1559
     34 C          59.5285   95.1050    0.5139 C.3     1  UNL1        0.1168
     35 C          59.8946   94.4202    1.7972 C.3     1  UNL1        0.1099
     36 N          59.4120   93.0258    2.0675 N.pl3   1  UNL1       -0.3045
     37 C          58.5632   92.3164    1.0544 C.3     1  UNL1        0.1099
     38 C          58.1971   93.0012   -0.2289 C.3     1  UNL1        0.1168
     39 C          57.9476   95.7651   -3.0659 C.3     1  UNL1        0.1960
     40 S          58.3137   95.0803   -1.7826 S.O2    1  UNL1        0.0458
     41 O          56.9047   95.2425   -1.2941 O.2     1  UNL1       -0.1572
     42 O          59.7226   94.9181   -2.2711 O.2     1  UNL1       -0.1572
@<TRIPOS>BOND
     1    39    40    1
     2    40    41    2
     3    40    42    2
     4    40    33    1
     5    33    34    1
     6    34    35    1
     7    35    36    1
     8    36    27    1
     9    27    28   ar
    10    28    29   ar
    11    29    30   ar
    12    30     1    1
    13     1     2    1
    14     2     3    1
    15     3     4    1
    16     4     5   am
    17     5     6    2
    18     5     7   am
    19    15     7    1
    20    15    16    1
    21    16    17    1
    22    17    18    1
    23    18    19    1
    24    19    20    1
    25    20    21    1
    26    21    22    1
    27    22    23    1
    28    22    24    1
    29    22    25    1
    30     4     8    1
    31     8     9   ar
    32     9    10   ar
    33    10    11   ar
    34    11    12   ar
    35    12    13   ar
    36    30    31   ar
    37    31    32   ar
    38    36    37    1
    39    37    38    1
    40    38    33    1
    41    32    27   ar
    42    13     1    1
    43    20    15    1
    44    13     8   ar
    45    25    16    1
    46    24    18    1
    47     7    14    1
    48    23    26    1
