@<TRIPOS>MOLECULE
*****
 40 46 0 0 0
SMALL
GASTEIGER

@<TRIPOS>ATOM
      1 C          60.9017   86.2558    8.8601 C.ar    1  UNL1        0.0146
      2 C          61.5124   85.9026    7.5364 C.ar    1  UNL1       -0.0011
      3 C          62.7451   85.0496    7.4828 C.ar    1  UNL1        0.0014
      4 C          63.3671   84.5499    8.7530 C.ar    1  UNL1        0.0206
      5 C          62.7565   84.9032   10.0767 C.ar    1  UNL1        0.0989
      6 C          61.5238   85.7561   10.1303 C.ar    1  UNL1        0.1511
      7 O          60.9131   86.1094   11.4540 O.3     1  UNL1       -0.4678
      8 C          61.5351   85.6097   12.7242 C.3     1  UNL1        0.2510
      9 C          62.7679   84.7567   12.6706 C.ar    1  UNL1        0.1087
     10 C          63.5976   84.1231   13.7477 C.ar    1  UNL1        0.1518
     11 N          64.7210   83.3783   13.0896 N.ar    1  UNL1       -0.2192
     12 C          64.5857   83.5515   11.6059 C.ar    1  UNL1        0.1828
     13 N          63.3785   84.4034   11.3469 N.ar    1  UNL1       -0.2851
     14 C          63.3477   84.2178   15.2237 C.2     1  UNL1        0.2681
     15 O          63.1478   82.9702   16.0321 O.2     1  UNL1       -0.2682
     16 N          63.2977   85.5601   15.8913 N.am    1  UNL1       -0.2748
     17 C          63.4976   86.8078   15.0830 C.3     1  UNL1        0.0938
     18 C          63.4477   88.1501   15.7507 C.3     1  UNL1        0.0216
     19 C          63.1978   88.2447   17.2267 C.3     1  UNL1        0.0035
     20 C          62.9979   86.9970   18.0350 C.3     1  UNL1        0.0216
     21 C          63.0479   85.6548   17.3673 C.3     1  UNL1        0.0938
     22 C          59.6690   87.1088    8.9137 C.3     1  UNL1        0.0468
     23 C          59.7928   88.6008    9.0070 C.3     1  UNL1        0.0770
     24 N          62.9602   90.4364   11.6238 N.pl3   1  UNL1       -0.3046
     25 C          61.6265   90.0711   12.2048 C.3     1  UNL1        0.1081
     26 C          60.5706   89.4592   11.3325 C.3     1  UNL1        0.0938
     27 N          60.8486   89.2126    9.8793 N.3     1  UNL1       -0.2695
     28 C          62.1824   89.5779    9.2983 C.3     1  UNL1        0.0938
     29 C          63.2382   90.1898   10.1706 C.3     1  UNL1        0.1081
     30 C          67.2086   95.7244   10.5107 C.3     1  UNL1        0.0521
     31 C          66.4104   94.5553   11.0071 C.ar    1  UNL1        0.0593
     32 C          65.3546   93.9435   10.1348 C.ar    1  UNL1        0.0148
     33 C          64.5565   92.7745   10.6311 C.ar    1  UNL1        0.0039
     34 C          64.8141   92.2173   11.9997 C.ar    1  UNL1        0.0310
     35 C          64.0160   91.0483   12.4961 C.ar    1  UNL1        0.0493
     36 C          64.2737   90.4911   13.8648 C.ar    1  UNL1        0.0146
     37 C          65.3295   91.1030   14.7370 C.ar    1  UNL1        0.0028
     38 C          66.1276   92.2720   14.2407 C.ar    1  UNL1        0.0192
     39 C          65.8700   92.8292   12.8721 C.ar    1  UNL1        0.0821
     40 N          66.6681   93.9982   12.3758 N.ar    1  UNL1       -0.2496
@<TRIPOS>BOND
     1    30    31    1
     2    31    32   ar
     3    32    33   ar
     4    33    34   ar
     5    34    35   ar
     6    35    24    1
     7    24    25    1
     8    25    26    1
     9    26    27    1
    10    27    23    1
    11    23    22    1
    12    22     1    1
    13     1     2   ar
    14     2     3   ar
    15     3     4   ar
    16     4     5   ar
    17     5     6   ar
    18     6     7    1
    19     7     8    1
    20     8     9    1
    21     9    10   ar
    22    10    14    1
    23    14    15    2
    24    14    16   am
    25    16    17    1
    26    17    18    1
    27    18    19    1
    28    19    20    1
    29    20    21    1
    30    10    11   ar
    31    11    12   ar
    32    12    13   ar
    33    27    28    1
    34    28    29    1
    35    35    36   ar
    36    36    37   ar
    37    37    38   ar
    38    38    39   ar
    39    39    40   ar
    40    40    31   ar
    41    39    34   ar
    42    29    24    1
    43     6     1   ar
    44    13     9   ar
    45    13     5    1
    46    21    16    1
@<TRIPOS>MOLECULE
*****
 40 46 0 0 0
SMALL
GASTEIGER

@<TRIPOS>ATOM
      1 C          63.1240   84.1738   15.0198 C.ar    1  UNL1        0.0146
      2 C          64.1847   83.1723   15.3683 C.ar    1  UNL1       -0.0011
      3 C          64.9523   82.4831   14.2794 C.ar    1  UNL1        0.0014
      4 C          64.6591   82.7955   12.8419 C.ar    1  UNL1        0.0206
      5 C          63.5983   83.7971   12.4933 C.ar    1  UNL1        0.0989
      6 C          62.8307   84.4863   13.5823 C.ar    1  UNL1        0.1511
      7 O          61.7699   85.4879   13.2338 O.3     1  UNL1       -0.4678
      8 C          61.4767   85.8004   11.7963 C.3     1  UNL1        0.2510
      9 C          62.2443   85.1111   10.7073 C.ar    1  UNL1        0.1087
     10 C          62.1769   85.2138    9.2124 C.ar    1  UNL1        0.1518
     11 N          63.1961   84.2756    8.6370 N.ar    1  UNL1       -0.2192
     12 C          63.8933   83.5932    9.7763 C.ar    1  UNL1        0.1828
     13 N          63.3051   84.1095   11.0558 N.ar    1  UNL1       -0.2851
     14 C          61.2527   86.0992    8.4302 C.2     1  UNL1        0.2681
     15 O          60.5461   85.5635    7.2203 O.2     1  UNL1       -0.2682
     16 N          61.0350   87.5204    8.8579 N.am    1  UNL1       -0.2748
     17 C          61.7415   88.0562   10.0678 C.3     1  UNL1        0.0938
     18 C          61.5237   89.4774   10.4954 C.3     1  UNL1        0.0216
     19 C          60.5995   90.3627    9.7132 C.3     1  UNL1        0.0035
     20 C          59.8930   89.8269    8.5033 C.3     1  UNL1        0.0216
     21 C          60.1107   88.4058    8.0757 C.3     1  UNL1        0.0938
     22 C          62.3564   84.8631   16.1088 C.3     1  UNL1        0.0468
     23 C          62.9621   86.0305   16.8300 C.3     1  UNL1        0.0770
     24 N          64.3224   89.6438   14.5183 N.pl3   1  UNL1       -0.3046
     25 C          63.4705   89.8129   15.7412 C.3     1  UNL1        0.1081
     26 C          63.0170   88.6084   16.5119 C.3     1  UNL1        0.0938
     27 N          63.4155   87.2349   16.0595 N.3     1  UNL1       -0.2695
     28 C          64.2675   87.0658   14.8365 C.3     1  UNL1        0.0938
     29 C          64.7209   88.2703   14.0659 C.3     1  UNL1        0.1081
     30 C          69.1104   94.3629   15.9520 C.3     1  UNL1        0.0521
     31 C          68.0267   93.4842   15.4009 C.ar    1  UNL1        0.0593
     32 C          67.5733   92.2798   16.1715 C.ar    1  UNL1        0.0148
     33 C          66.4897   91.4011   15.6204 C.ar    1  UNL1        0.0039
     34 C          65.8594   91.7268   14.2988 C.ar    1  UNL1        0.0310
     35 C          64.7758   90.8482   13.7478 C.ar    1  UNL1        0.0493
     36 C          64.1455   91.1740   12.4261 C.ar    1  UNL1        0.0146
     37 C          64.5989   92.3784   11.6556 C.ar    1  UNL1        0.0028
     38 C          65.6826   93.2570   12.2066 C.ar    1  UNL1        0.0192
     39 C          66.3128   92.9313   13.5282 C.ar    1  UNL1        0.0821
     40 N          67.3965   93.8100   14.0793 N.ar    1  UNL1       -0.2496
@<TRIPOS>BOND
     1    30    31    1
     2    31    32   ar
     3    32    33   ar
     4    33    34   ar
     5    34    35   ar
     6    35    24    1
     7    24    25    1
     8    25    26    1
     9    26    27    1
    10    27    23    1
    11    23    22    1
    12    22     1    1
    13     1     2   ar
    14     2     3   ar
    15     3     4   ar
    16     4     5   ar
    17     5     6   ar
    18     6     7    1
    19     7     8    1
    20     8     9    1
    21     9    10   ar
    22    10    14    1
    23    14    15    2
    24    14    16   am
    25    16    17    1
    26    17    18    1
    27    18    19    1
    28    19    20    1
    29    20    21    1
    30    10    11   ar
    31    11    12   ar
    32    12    13   ar
    33    27    28    1
    34    28    29    1
    35    35    36   ar
    36    36    37   ar
    37    37    38   ar
    38    38    39   ar
    39    39    40   ar
    40    40    31   ar
    41    39    34   ar
    42    29    24    1
    43     6     1   ar
    44    13     9   ar
    45    13     5    1
    46    21    16    1
@<TRIPOS>MOLECULE
*****
 40 46 0 0 0
SMALL
GASTEIGER

@<TRIPOS>ATOM
      1 C          59.7866   88.9830    8.0464 C.ar    1  UNL1        0.0146
      2 C          59.4395   87.6239    7.5151 C.ar    1  UNL1       -0.0011
      3 C          59.9948   86.3965    8.1746 C.ar    1  UNL1        0.0014
      4 C          60.8974   86.5282    9.3655 C.ar    1  UNL1        0.0206
      5 C          61.2445   87.8873    9.8968 C.ar    1  UNL1        0.0989
      6 C          60.6891   89.1147    9.2373 C.ar    1  UNL1        0.1511
      7 O          61.0363   90.4739    9.7686 O.3     1  UNL1       -0.4678
      8 C          61.9388   90.6056   10.9594 C.3     1  UNL1        0.2510
      9 C          62.4942   89.3781   11.6189 C.ar    1  UNL1        0.1087
     10 C          63.4020   89.1965   12.7991 C.ar    1  UNL1        0.1518
     11 N          63.6159   87.7251   12.9972 N.ar    1  UNL1       -0.2192
     12 C          62.8403   86.9974   11.9395 C.ar    1  UNL1        0.1828
     13 N          62.1470   88.0190   11.0876 N.ar    1  UNL1       -0.2851
     14 C          63.9922   90.2936   13.6346 C.2     1  UNL1        0.2681
     15 O          63.7976   90.2912   15.1218 O.2     1  UNL1       -0.2682
     16 N          64.7771   91.3931   12.9826 N.am    1  UNL1       -0.2748
     17 C          64.9718   91.3956   11.4953 C.3     1  UNL1        0.0938
     18 C          65.7566   92.4951   10.8434 C.3     1  UNL1        0.0216
     19 C          66.3469   93.5922   11.6788 C.3     1  UNL1        0.0035
     20 C          66.1523   93.5898   13.1661 C.3     1  UNL1        0.0216
     21 C          65.3674   92.4902   13.8180 C.3     1  UNL1        0.0938
     22 C          59.2312   90.2105    7.3869 C.3     1  UNL1        0.0468
     23 C          58.8882   90.1873    5.9268 C.3     1  UNL1        0.0770
     24 N          61.4145   92.4712    2.9855 N.pl3   1  UNL1       -0.3046
     25 C          59.9635   92.8129    3.1519 C.3     1  UNL1        0.1081
     26 C          59.1213   92.0516    4.1323 C.3     1  UNL1        0.0938
     27 N          59.7303   90.9486    4.9464 N.3     1  UNL1       -0.2695
     28 C          61.1814   90.6069    4.7799 C.3     1  UNL1        0.0938
     29 C          62.0235   91.3682    3.7995 C.3     1  UNL1        0.1081
     30 C          60.3855   93.9259   -3.6534 C.3     1  UNL1        0.0521
     31 C          60.8532   93.7526   -2.2388 C.ar    1  UNL1        0.0593
     32 C          60.0112   92.9913   -1.2584 C.ar    1  UNL1        0.0148
     33 C          60.4790   92.8179    0.1562 C.ar    1  UNL1        0.0039
     34 C          61.7888   93.4058    0.5904 C.ar    1  UNL1        0.0310
     35 C          62.2566   93.2325    2.0050 C.ar    1  UNL1        0.0493
     36 C          63.5665   93.8205    2.4392 C.ar    1  UNL1        0.0146
     37 C          64.4086   94.5818    1.4587 C.ar    1  UNL1        0.0028
     38 C          63.9408   94.7551    0.0441 C.ar    1  UNL1        0.0192
     39 C          62.6310   94.1672   -0.3900 C.ar    1  UNL1        0.0821
     40 N          62.1632   94.3405   -1.8047 N.ar    1  UNL1       -0.2496
@<TRIPOS>BOND
     1    30    31    1
     2    31    32   ar
     3    32    33   ar
     4    33    34   ar
     5    34    35   ar
     6    35    24    1
     7    24    25    1
     8    25    26    1
     9    26    27    1
    10    27    23    1
    11    23    22    1
    12    22     1    1
    13     1     2   ar
    14     2     3   ar
    15     3     4   ar
    16     4     5   ar
    17     5     6   ar
    18     6     7    1
    19     7     8    1
    20     8     9    1
    21     9    10   ar
    22    10    14    1
    23    14    15    2
    24    14    16   am
    25    16    17    1
    26    17    18    1
    27    18    19    1
    28    19    20    1
    29    20    21    1
    30    10    11   ar
    31    11    12   ar
    32    12    13   ar
    33    27    28    1
    34    28    29    1
    35    35    36   ar
    36    36    37   ar
    37    37    38   ar
    38    38    39   ar
    39    39    40   ar
    40    40    31   ar
    41    39    34   ar
    42    29    24    1
    43     6     1   ar
    44    13     9   ar
    45    13     5    1
    46    21    16    1
@<TRIPOS>MOLECULE
*****
 40 46 0 0 0
SMALL
GASTEIGER

@<TRIPOS>ATOM
      1 C          63.1016   88.4635   16.5564 C.ar    1  UNL1        0.0146
      2 C          62.8956   88.0949   17.9957 C.ar    1  UNL1       -0.0011
      3 C          62.8569   86.6516   18.4021 C.ar    1  UNL1        0.0014
      4 C          63.0241   85.5768   17.3693 C.ar    1  UNL1        0.0206
      5 C          63.2301   85.9453   15.9299 C.ar    1  UNL1        0.0989
      6 C          63.2689   87.3887   15.5235 C.ar    1  UNL1        0.1511
      7 O          63.4749   87.7572   14.0841 O.3     1  UNL1       -0.4678
      8 C          63.6422   86.6824   13.0512 C.3     1  UNL1        0.2510
      9 C          63.6034   85.2390   13.4578 C.ar    1  UNL1        0.1087
     10 C          63.7376   83.9703   12.6690 C.ar    1  UNL1        0.1518
     11 N          63.6146   82.8176   13.6209 N.ar    1  UNL1       -0.2192
     12 C          63.4043   83.3739   14.9979 C.ar    1  UNL1        0.1828
     13 N          63.3974   84.8705   14.8971 N.ar    1  UNL1       -0.2851
     14 C          63.9565   83.8715   11.1883 C.2     1  UNL1        0.2681
     15 O          65.0751   83.0296   10.6500 O.2     1  UNL1       -0.2682
     16 N          63.0567   84.6149   10.2460 N.am    1  UNL1       -0.2748
     17 C          61.9381   85.4568   10.7843 C.3     1  UNL1        0.0938
     18 C          61.0384   86.2001    9.8419 C.3     1  UNL1        0.0216
     19 C          61.2572   86.1014    8.3613 C.3     1  UNL1        0.0035
     20 C          62.3758   85.2594    7.8230 C.3     1  UNL1        0.0216
     21 C          63.2755   84.5161    8.7654 C.3     1  UNL1        0.0938
     22 C          63.1404   89.9069   16.1498 C.3     1  UNL1        0.0468
     23 C          64.4106   90.6921   16.2915 C.3     1  UNL1        0.0770
     24 N          65.8416   93.2866   12.9047 N.pl3   1  UNL1       -0.3046
     25 C          64.7995   92.2367   12.6566 C.3     1  UNL1        0.1081
     26 C          64.3224   91.3718   13.7855 C.3     1  UNL1        0.0938
     27 N          64.8876   91.5569   15.1626 N.3     1  UNL1       -0.2695
     28 C          65.9298   92.6068   15.4107 C.3     1  UNL1        0.0938
     29 C          66.4068   93.4717   14.2818 C.3     1  UNL1        0.1081
     30 C          69.6226   91.7764    7.3664 C.3     1  UNL1        0.0521
     31 C          68.7966   92.3702    8.4687 C.ar    1  UNL1        0.0593
     32 C          68.3196   91.5054    9.5977 C.ar    1  UNL1        0.0148
     33 C          67.4936   92.0991   10.7000 C.ar    1  UNL1        0.0039
     34 C          67.1446   93.5577   10.6734 C.ar    1  UNL1        0.0310
     35 C          66.3186   94.1514   11.7758 C.ar    1  UNL1        0.0493
     36 C          65.9696   95.6101   11.7492 C.ar    1  UNL1        0.0146
     37 C          66.4466   96.4749   10.6203 C.ar    1  UNL1        0.0028
     38 C          67.2727   95.8811    9.5179 C.ar    1  UNL1        0.0192
     39 C          67.6217   94.4226    9.5445 C.ar    1  UNL1        0.0821
     40 N          68.4477   93.8288    8.4421 N.ar    1  UNL1       -0.2496
@<TRIPOS>BOND
     1    30    31    1
     2    31    32   ar
     3    32    33   ar
     4    33    34   ar
     5    34    35   ar
     6    35    24    1
     7    24    25    1
     8    25    26    1
     9    26    27    1
    10    27    23    1
    11    23    22    1
    12    22     1    1
    13     1     2   ar
    14     2     3   ar
    15     3     4   ar
    16     4     5   ar
    17     5     6   ar
    18     6     7    1
    19     7     8    1
    20     8     9    1
    21     9    10   ar
    22    10    14    1
    23    14    15    2
    24    14    16   am
    25    16    17    1
    26    17    18    1
    27    18    19    1
    28    19    20    1
    29    20    21    1
    30    10    11   ar
    31    11    12   ar
    32    12    13   ar
    33    27    28    1
    34    28    29    1
    35    35    36   ar
    36    36    37   ar
    37    37    38   ar
    38    38    39   ar
    39    39    40   ar
    40    40    31   ar
    41    39    34   ar
    42    29    24    1
    43     6     1   ar
    44    13     9   ar
    45    13     5    1
    46    21    16    1
@<TRIPOS>MOLECULE
*****
 40 46 0 0 0
SMALL
GASTEIGER

@<TRIPOS>ATOM
      1 C          63.7559   90.3793   15.7348 C.ar    1  UNL1        0.0146
      2 C          65.0161   91.1429   16.0156 C.ar    1  UNL1       -0.0011
      3 C          65.7337   91.8423   14.8995 C.ar    1  UNL1        0.0014
      4 C          65.1911   91.7782   13.5025 C.ar    1  UNL1        0.0206
      5 C          63.9310   91.0146   13.2217 C.ar    1  UNL1        0.0989
      6 C          63.2134   90.3152   14.3378 C.ar    1  UNL1        0.1511
      7 O          61.9531   89.5516   14.0570 O.3     1  UNL1       -0.4678
      8 C          61.4106   89.4875   12.6600 C.3     1  UNL1        0.2510
      9 C          62.1283   90.1869   11.5439 C.ar    1  UNL1        0.1087
     10 C          61.8349   90.2998   10.0772 C.ar    1  UNL1        0.1518
     11 N          62.9139   91.1331    9.4515 N.ar    1  UNL1       -0.2192
     12 C          63.8740   91.5353   10.5316 C.ar    1  UNL1        0.1828
     13 N          63.3884   90.9505   11.8247 N.ar    1  UNL1       -0.2851
     14 C          60.6677   89.6869    9.3618 C.2     1  UNL1        0.2681
     15 O          59.4286   90.4962    9.1176 O.2     1  UNL1       -0.2682
     16 N          60.7395   88.2646    8.8905 N.am    1  UNL1       -0.2748
     17 C          61.9786   87.4552    9.1347 C.3     1  UNL1        0.0938
     18 C          62.0503   86.0330    8.6634 C.3     1  UNL1        0.0216
     19 C          60.8831   85.4201    7.9480 C.3     1  UNL1        0.0035
     20 C          59.6440   86.2295    7.7038 C.3     1  UNL1        0.0216
     21 C          59.5722   87.6518    8.1751 C.3     1  UNL1        0.0938
     22 C          63.0382   89.6799   16.8510 C.3     1  UNL1        0.0468
     23 C          63.3497   88.2456   17.1603 C.3     1  UNL1        0.0770
     24 N          63.5118   85.2117   13.8408 N.pl3   1  UNL1       -0.3046
     25 C          64.3300   86.4657   13.7514 C.3     1  UNL1        0.1081
     26 C          64.2760   87.4770   14.8579 C.3     1  UNL1        0.0938
     27 N          63.4037   87.2343   16.0538 N.3     1  UNL1       -0.2695
     28 C          62.5855   85.9802   16.1433 C.3     1  UNL1        0.0938
     29 C          62.6396   84.9689   15.0368 C.3     1  UNL1        0.1081
     30 C          61.6370   78.6001   13.6916 C.3     1  UNL1        0.0521
     31 C          62.1192   80.0002   13.4523 C.ar    1  UNL1        0.0593
     32 C          62.0652   81.0115   14.5587 C.ar    1  UNL1        0.0148
     33 C          62.5474   82.4115   14.3194 C.ar    1  UNL1        0.0039
     34 C          63.0836   82.8003   12.9736 C.ar    1  UNL1        0.0310
     35 C          63.5659   84.2004   12.7343 C.ar    1  UNL1        0.0493
     36 C          64.1021   84.5892   11.3885 C.ar    1  UNL1        0.0146
     37 C          64.1562   83.5779   10.2820 C.ar    1  UNL1        0.0028
     38 C          63.6740   82.1778   10.5213 C.ar    1  UNL1        0.0192
     39 C          63.1377   81.7890   11.8671 C.ar    1  UNL1        0.0821
     40 N          62.6555   80.3890   12.1064 N.ar    1  UNL1       -0.2496
@<TRIPOS>BOND
     1    30    31    1
     2    31    32   ar
     3    32    33   ar
     4    33    34   ar
     5    34    35   ar
     6    35    24    1
     7    24    25    1
     8    25    26    1
     9    26    27    1
    10    27    23    1
    11    23    22    1
    12    22     1    1
    13     1     2   ar
    14     2     3   ar
    15     3     4   ar
    16     4     5   ar
    17     5     6   ar
    18     6     7    1
    19     7     8    1
    20     8     9    1
    21     9    10   ar
    22    10    14    1
    23    14    15    2
    24    14    16   am
    25    16    17    1
    26    17    18    1
    27    18    19    1
    28    19    20    1
    29    20    21    1
    30    10    11   ar
    31    11    12   ar
    32    12    13   ar
    33    27    28    1
    34    28    29    1
    35    35    36   ar
    36    36    37   ar
    37    37    38   ar
    38    38    39   ar
    39    39    40   ar
    40    40    31   ar
    41    39    34   ar
    42    29    24    1
    43     6     1   ar
    44    13     9   ar
    45    13     5    1
    46    21    16    1
@<TRIPOS>MOLECULE
*****
 40 46 0 0 0
SMALL
GASTEIGER

@<TRIPOS>ATOM
      1 C          63.5960   90.2633   15.7618 C.ar    1  UNL1        0.0146
      2 C          64.9103   90.9266   16.0489 C.ar    1  UNL1       -0.0011
      3 C          65.6817   91.5750   14.9378 C.ar    1  UNL1        0.0014
      4 C          65.1387   91.5601   13.5396 C.ar    1  UNL1        0.0206
      5 C          63.8244   90.8967   13.2525 C.ar    1  UNL1        0.0989
      6 C          63.0530   90.2484   14.3636 C.ar    1  UNL1        0.1511
      7 O          61.7386   89.5850   14.0765 O.3     1  UNL1       -0.4678
      8 C          61.1957   89.5700   12.6782 C.3     1  UNL1        0.2510
      9 C          61.9671   90.2185   11.5671 C.ar    1  UNL1        0.1087
     10 C          61.6864   90.3613   10.1006 C.ar    1  UNL1        0.1518
     11 N          62.8273   91.1129    9.4814 N.ar    1  UNL1       -0.2192
     12 C          63.8131   91.4346   10.5652 C.ar    1  UNL1        0.1828
     13 N          63.2815   90.8818   11.8543 N.ar    1  UNL1       -0.2851
     14 C          60.4771   89.8434    9.3799 C.2     1  UNL1        0.2681
     15 O          59.2661   90.7147    9.2247 O.2     1  UNL1       -0.2682
     16 N          60.4790   88.4541    8.8143 N.am    1  UNL1       -0.2748
     17 C          61.6900   87.5827    8.9694 C.3     1  UNL1        0.0938
     18 C          61.6917   86.1934    8.4038 C.3     1  UNL1        0.0216
     19 C          60.4825   85.6755    7.6830 C.3     1  UNL1        0.0035
     20 C          59.2715   86.5469    7.5279 C.3     1  UNL1        0.0216
     21 C          59.2697   87.9362    8.0935 C.3     1  UNL1        0.0938
     22 C          62.8245   89.6149   16.8729 C.3     1  UNL1        0.0468
     23 C          63.2924   88.3117   17.4497 C.3     1  UNL1        0.0770
     24 N          63.0360   84.5456   15.0001 N.pl3   1  UNL1       -0.3046
     25 C          64.1269   85.5402   14.7344 C.3     1  UNL1        0.1081
     26 C          64.2123   86.7956   15.5510 C.3     1  UNL1        0.0938
     27 N          63.2069   87.0563   16.6332 N.3     1  UNL1       -0.2695
     28 C          62.1160   86.0616   16.8988 C.3     1  UNL1        0.0938
     29 C          62.0305   84.8063   16.0823 C.3     1  UNL1        0.1081
     30 C          63.5905   83.5390    8.2230 C.3     1  UNL1        0.0521
     31 C          63.4305   83.4768    9.7131 C.ar    1  UNL1        0.0593
     32 C          63.5159   84.7321   10.5297 C.ar    1  UNL1        0.0148
     33 C          63.3560   84.6699   12.0198 C.ar    1  UNL1        0.0039
     34 C          63.1105   83.3524   12.6934 C.ar    1  UNL1        0.0310
     35 C          62.9505   83.2902   14.1836 C.ar    1  UNL1        0.0493
     36 C          62.7051   81.9726   14.8572 C.ar    1  UNL1        0.0146
     37 C          62.6196   80.7172   14.0407 C.ar    1  UNL1        0.0028
     38 C          62.7796   80.7794   12.5505 C.ar    1  UNL1        0.0192
     39 C          63.0250   82.0970   11.8769 C.ar    1  UNL1        0.0821
     40 N          63.1850   82.1592   10.3867 N.ar    1  UNL1       -0.2496
@<TRIPOS>BOND
     1    30    31    1
     2    31    32   ar
     3    32    33   ar
     4    33    34   ar
     5    34    35   ar
     6    35    24    1
     7    24    25    1
     8    25    26    1
     9    26    27    1
    10    27    23    1
    11    23    22    1
    12    22     1    1
    13     1     2   ar
    14     2     3   ar
    15     3     4   ar
    16     4     5   ar
    17     5     6   ar
    18     6     7    1
    19     7     8    1
    20     8     9    1
    21     9    10   ar
    22    10    14    1
    23    14    15    2
    24    14    16   am
    25    16    17    1
    26    17    18    1
    27    18    19    1
    28    19    20    1
    29    20    21    1
    30    10    11   ar
    31    11    12   ar
    32    12    13   ar
    33    27    28    1
    34    28    29    1
    35    35    36   ar
    36    36    37   ar
    37    37    38   ar
    38    38    39   ar
    39    39    40   ar
    40    40    31   ar
    41    39    34   ar
    42    29    24    1
    43     6     1   ar
    44    13     9   ar
    45    13     5    1
    46    21    16    1
@<TRIPOS>MOLECULE
*****
 40 46 0 0 0
SMALL
GASTEIGER

@<TRIPOS>ATOM
      1 C          59.6840   88.4825    7.5104 C.ar    1  UNL1        0.0146
      2 C          59.4026   87.0747    7.0760 C.ar    1  UNL1       -0.0011
      3 C          59.9629   85.9228    7.8566 C.ar    1  UNL1        0.0014
      4 C          60.8046   86.1788    9.0715 C.ar    1  UNL1        0.0206
      5 C          61.0860   87.5867    9.5059 C.ar    1  UNL1        0.0989
      6 C          60.5257   88.7385    8.7253 C.ar    1  UNL1        0.1511
      7 O          60.8071   90.1465    9.1597 O.3     1  UNL1       -0.4678
      8 C          61.6488   90.4025   10.3746 C.3     1  UNL1        0.2510
      9 C          62.2091   89.2505   11.1551 C.ar    1  UNL1        0.1087
     10 C          63.0659   89.1938   12.3850 C.ar    1  UNL1        0.1518
     11 N          63.3139   87.7507   12.7108 N.ar    1  UNL1       -0.2192
     12 C          62.6105   86.9157   11.6823 C.ar    1  UNL1        0.1828
     13 N          61.9277   87.8427   10.7208 N.ar    1  UNL1       -0.2851
     14 C          63.5836   90.3729   13.1541 C.2     1  UNL1        0.2681
     15 O          63.2441   90.5286   14.6069 O.2     1  UNL1       -0.2682
     16 N          64.4409   91.3964   12.4704 N.am    1  UNL1       -0.2748
     17 C          64.7804   91.2409   11.0176 C.3     1  UNL1        0.0938
     18 C          65.6377   92.2644   10.3340 C.3     1  UNL1        0.0216
     19 C          66.1555   93.4436   11.1031 C.3     1  UNL1        0.0035
     20 C          65.8160   93.5992   12.5558 C.3     1  UNL1        0.0216
     21 C          64.9587   92.5756   13.2395 C.3     1  UNL1        0.0938
     22 C          59.1238   89.6345    6.7298 C.3     1  UNL1        0.0468
     23 C          59.9456   90.8726    6.5258 C.3     1  UNL1        0.0770
     24 N          60.7394   92.3857    2.3628 N.pl3   1  UNL1       -0.3046
     25 C          61.7877   91.5922    3.0850 C.3     1  UNL1        0.1081
     26 C          61.5231   91.0878    4.4727 C.3     1  UNL1        0.0938
     27 N          60.2102   91.3769    5.1382 N.3     1  UNL1       -0.2695
     28 C          59.1620   92.1704    4.4159 C.3     1  UNL1        0.0938
     29 C          59.4266   92.6748    3.0283 C.3     1  UNL1        0.1081
     30 C          65.6579   96.5340   -0.0558 C.3     1  UNL1        0.0521
     31 C          64.4944   95.6230    0.2019 C.ar    1  UNL1        0.0593
     32 C          64.2298   95.1186    1.5896 C.ar    1  UNL1        0.0148
     33 C          63.0664   94.2076    1.8473 C.ar    1  UNL1        0.0039
     34 C          62.1675   93.8010    0.7175 C.ar    1  UNL1        0.0310
     35 C          61.0040   92.8900    0.9752 C.ar    1  UNL1        0.0493
     36 C          60.1052   92.4834   -0.1547 C.ar    1  UNL1        0.0146
     37 C          60.3698   92.9877   -1.5424 C.ar    1  UNL1        0.0028
     38 C          61.5332   93.8987   -1.8001 C.ar    1  UNL1        0.0192
     39 C          62.4321   94.3053   -0.6703 C.ar    1  UNL1        0.0821
     40 N          63.5956   95.2163   -0.9280 N.ar    1  UNL1       -0.2496
@<TRIPOS>BOND
     1    30    31    1
     2    31    32   ar
     3    32    33   ar
     4    33    34   ar
     5    34    35   ar
     6    35    24    1
     7    24    25    1
     8    25    26    1
     9    26    27    1
    10    27    23    1
    11    23    22    1
    12    22     1    1
    13     1     2   ar
    14     2     3   ar
    15     3     4   ar
    16     4     5   ar
    17     5     6   ar
    18     6     7    1
    19     7     8    1
    20     8     9    1
    21     9    10   ar
    22    10    14    1
    23    14    15    2
    24    14    16   am
    25    16    17    1
    26    17    18    1
    27    18    19    1
    28    19    20    1
    29    20    21    1
    30    10    11   ar
    31    11    12   ar
    32    12    13   ar
    33    27    28    1
    34    28    29    1
    35    35    36   ar
    36    36    37   ar
    37    37    38   ar
    38    38    39   ar
    39    39    40   ar
    40    40    31   ar
    41    39    34   ar
    42    29    24    1
    43     6     1   ar
    44    13     9   ar
    45    13     5    1
    46    21    16    1
@<TRIPOS>MOLECULE
*****
 40 46 0 0 0
SMALL
GASTEIGER

@<TRIPOS>ATOM
      1 C          59.5004   88.5058    7.2158 C.ar    1  UNL1        0.0146
      2 C          59.0860   87.0994    6.8990 C.ar    1  UNL1       -0.0011
      3 C          59.5743   85.9642    7.7491 C.ar    1  UNL1        0.0014
      4 C          60.4771   86.2352    8.9159 C.ar    1  UNL1        0.0206
      5 C          60.8916   87.6416    9.2327 C.ar    1  UNL1        0.0989
      6 C          60.4032   88.7768    8.3826 C.ar    1  UNL1        0.1511
      7 O          60.8177   90.1833    8.6994 O.3     1  UNL1       -0.4678
      8 C          61.7204   90.4544    9.8663 C.3     1  UNL1        0.2510
      9 C          62.2088   89.3190   10.7163 C.ar    1  UNL1        0.1087
     10 C          63.1007   89.2791   11.9217 C.ar    1  UNL1        0.1518
     11 N          63.2375   87.8480   12.3499 N.ar    1  UNL1       -0.2192
     12 C          62.4301   87.0035   11.4091 C.ar    1  UNL1        0.1828
     13 N          61.7943   87.9126   10.3995 N.ar    1  UNL1       -0.2851
     14 C          63.7430   90.4625   12.5828 C.2     1  UNL1        0.2681
     15 O          64.3762   91.5358   11.7480 O.2     1  UNL1       -0.2682
     16 N          63.7520   90.5724   14.0787 N.am    1  UNL1       -0.2748
     17 C          63.1188   89.4991   14.9136 C.3     1  UNL1        0.0938
     18 C          63.1279   89.6091   16.4095 C.3     1  UNL1        0.0216
     19 C          63.7703   90.7924   17.0706 C.3     1  UNL1        0.0035
     20 C          64.4035   91.8658   16.2358 C.3     1  UNL1        0.0216
     21 C          64.3944   91.7558   14.7398 C.3     1  UNL1        0.0938
     22 C          59.0121   89.6411    6.3657 C.3     1  UNL1        0.0468
     23 C          59.7850   90.9256    6.3139 C.3     1  UNL1        0.0770
     24 N          61.2464   92.5146    2.3656 N.pl3   1  UNL1       -0.3046
     25 C          59.8791   92.8810    2.8617 C.3     1  UNL1        0.1081
     26 C          59.3919   92.3513    4.1778 C.3     1  UNL1        0.0938
     27 N          60.2721   91.4553    4.9978 N.3     1  UNL1       -0.2695
     28 C          61.6395   91.0889    4.5016 C.3     1  UNL1        0.0938
     29 C          62.1266   91.6185    3.1855 C.3     1  UNL1        0.1081
     30 C          58.0887   93.0495   -3.7166 C.3     1  UNL1        0.0521
     31 C          58.9999   93.0482   -2.5251 C.ar    1  UNL1        0.0593
     32 C          58.5128   92.5186   -1.2090 C.ar    1  UNL1        0.0148
     33 C          59.4240   92.5172   -0.0175 C.ar    1  UNL1        0.0039
     34 C          60.8223   93.0456   -0.1421 C.ar    1  UNL1        0.0310
     35 C          61.7335   93.0442    1.0495 C.ar    1  UNL1        0.0493
     36 C          63.1319   93.5726    0.9248 C.ar    1  UNL1        0.0146
     37 C          63.6190   94.1022   -0.3913 C.ar    1  UNL1        0.0028
     38 C          62.7078   94.1035   -1.5828 C.ar    1  UNL1        0.0192
     39 C          61.3095   93.5752   -1.4582 C.ar    1  UNL1        0.0821
     40 N          60.3983   93.5766   -2.6497 N.ar    1  UNL1       -0.2496
@<TRIPOS>BOND
     1    30    31    1
     2    31    32   ar
     3    32    33   ar
     4    33    34   ar
     5    34    35   ar
     6    35    24    1
     7    24    25    1
     8    25    26    1
     9    26    27    1
    10    27    23    1
    11    23    22    1
    12    22     1    1
    13     1     2   ar
    14     2     3   ar
    15     3     4   ar
    16     4     5   ar
    17     5     6   ar
    18     6     7    1
    19     7     8    1
    20     8     9    1
    21     9    10   ar
    22    10    14    1
    23    14    15    2
    24    14    16   am
    25    16    17    1
    26    17    18    1
    27    18    19    1
    28    19    20    1
    29    20    21    1
    30    10    11   ar
    31    11    12   ar
    32    12    13   ar
    33    27    28    1
    34    28    29    1
    35    35    36   ar
    36    36    37   ar
    37    37    38   ar
    38    38    39   ar
    39    39    40   ar
    40    40    31   ar
    41    39    34   ar
    42    29    24    1
    43     6     1   ar
    44    13     9   ar
    45    13     5    1
    46    21    16    1
@<TRIPOS>MOLECULE
*****
 40 46 0 0 0
SMALL
GASTEIGER

@<TRIPOS>ATOM
      1 C          59.5235   88.5369    7.2418 C.ar    1  UNL1        0.0146
      2 C          59.0989   87.1356    6.9162 C.ar    1  UNL1       -0.0011
      3 C          59.5732   85.9923    7.7635 C.ar    1  UNL1        0.0014
      4 C          60.4720   86.2504    8.9363 C.ar    1  UNL1        0.0206
      5 C          60.8966   87.6517    9.2619 C.ar    1  UNL1        0.0989
      6 C          60.4223   88.7950    8.4146 C.ar    1  UNL1        0.1511
      7 O          60.8469   90.1964    8.7402 O.3     1  UNL1       -0.4678
      8 C          61.7457   90.4544    9.9130 C.3     1  UNL1        0.2510
      9 C          62.2199   89.3110   10.7603 C.ar    1  UNL1        0.1087
     10 C          63.1051   89.2580   11.9701 C.ar    1  UNL1        0.1518
     11 N          63.2276   87.8238   12.3923 N.ar    1  UNL1       -0.2192
     12 C          62.4181   86.9905   11.4434 C.ar    1  UNL1        0.1828
     13 N          61.7954   87.9097   10.4348 N.ar    1  UNL1       -0.2851
     14 C          63.7538   90.4328   12.6402 C.2     1  UNL1        0.2681
     15 O          64.3998   91.5051   11.8138 O.2     1  UNL1       -0.2682
     16 N          63.7566   90.5353   14.1367 N.am    1  UNL1       -0.2748
     17 C          63.1106   89.4630   14.9631 C.3     1  UNL1        0.0938
     18 C          63.1135   89.5656   16.4596 C.3     1  UNL1        0.0216
     19 C          63.7622   90.7404   17.1297 C.3     1  UNL1        0.0035
     20 C          64.4081   91.8127   16.3032 C.3     1  UNL1        0.0216
     21 C          64.4053   91.7101   14.8067 C.3     1  UNL1        0.0938
     22 C          59.0492   89.6803    6.3945 C.3     1  UNL1        0.0468
     23 C          59.9018   90.9051    6.2423 C.3     1  UNL1        0.0770
     24 N          60.8045   92.5228    2.1413 N.pl3   1  UNL1       -0.3046
     25 C          59.4376   92.6996    2.7331 C.3     1  UNL1        0.1081
     26 C          59.1367   92.1603    4.1001 C.3     1  UNL1        0.0938
     27 N          60.2027   91.4443    4.8753 N.3     1  UNL1       -0.2695
     28 C          61.5696   91.2675    4.2835 C.3     1  UNL1        0.0938
     29 C          61.8706   91.8067    2.9165 C.3     1  UNL1        0.1081
     30 C          65.8641   96.6182   -0.0673 C.3     1  UNL1        0.0521
     31 C          64.6745   95.7291    0.1431 C.ar    1  UNL1        0.0593
     32 C          64.3736   95.1899    1.5101 C.ar    1  UNL1        0.0148
     33 C          63.1839   94.3009    1.7205 C.ar    1  UNL1        0.0039
     34 C          62.2951   93.9510    0.5640 C.ar    1  UNL1        0.0310
     35 C          61.1055   93.0620    0.7744 C.ar    1  UNL1        0.0493
     36 C          60.2167   92.7121   -0.3823 C.ar    1  UNL1        0.0146
     37 C          60.5176   93.2514   -1.7492 C.ar    1  UNL1        0.0028
     38 C          61.7073   94.1404   -1.9597 C.ar    1  UNL1        0.0192
     39 C          62.5960   94.4902   -0.8031 C.ar    1  UNL1        0.0821
     40 N          63.7857   95.3793   -1.0135 N.ar    1  UNL1       -0.2496
@<TRIPOS>BOND
     1    30    31    1
     2    31    32   ar
     3    32    33   ar
     4    33    34   ar
     5    34    35   ar
     6    35    24    1
     7    24    25    1
     8    25    26    1
     9    26    27    1
    10    27    23    1
    11    23    22    1
    12    22     1    1
    13     1     2   ar
    14     2     3   ar
    15     3     4   ar
    16     4     5   ar
    17     5     6   ar
    18     6     7    1
    19     7     8    1
    20     8     9    1
    21     9    10   ar
    22    10    14    1
    23    14    15    2
    24    14    16   am
    25    16    17    1
    26    17    18    1
    27    18    19    1
    28    19    20    1
    29    20    21    1
    30    10    11   ar
    31    11    12   ar
    32    12    13   ar
    33    27    28    1
    34    28    29    1
    35    35    36   ar
    36    36    37   ar
    37    37    38   ar
    38    38    39   ar
    39    39    40   ar
    40    40    31   ar
    41    39    34   ar
    42    29    24    1
    43     6     1   ar
    44    13     9   ar
    45    13     5    1
    46    21    16    1
