@<TRIPOS>MOLECULE
*****
 40 44 0 0 0
SMALL
GASTEIGER

@<TRIPOS>ATOM
      1 C          62.5256   85.2820   12.7374 C.2     1  UNL1        0.2535
      2 O          62.1668   84.1380   13.6389 O.2     1  UNL1       -0.2695
      3 N          62.9427   86.5977   13.3249 N.am    1  UNL1       -0.2550
      4 C          63.2799   87.6742   12.3363 C.3     1  UNL1        0.1045
      5 C          63.7252   89.0817   12.6020 C.3     1  UNL1        0.0929
      6 C          63.9432   89.7604   13.9218 C.3     1  UNL1        0.2845
      7 F          64.2804   90.8369   12.9332 F       1  UNL1       -0.1995
      8 F          64.3113   90.9181   14.8017 F       1  UNL1       -0.1995
      9 C          63.7697   89.1990   15.3019 C.2     1  UNL1        0.0435
     10 C          64.0703   90.1408   16.4301 C.2     1  UNL1        0.0587
     11 C          63.3355   87.8204   15.7032 C.ar    1  UNL1        0.0149
     12 C          63.2927   87.6719   17.1952 C.ar    1  UNL1        0.0011
     13 C          62.8818   86.3656   17.8073 C.ar    1  UNL1        0.0001
     14 C          62.5137   85.2078   16.9274 C.ar    1  UNL1        0.0013
     15 C          62.5565   85.3564   15.4354 C.ar    1  UNL1        0.0149
     16 C          62.9674   86.6627   14.8233 C.ar    1  UNL1        0.0539
     17 C          62.3505   84.7669    8.2704 C.ar    1  UNL1        0.0837
     18 C          61.4161   85.7217    8.9525 C.ar    1  UNL1        0.0193
     19 C          61.4745   85.8934   10.4415 C.ar    1  UNL1        0.0069
     20 C          62.4672   85.1103   11.2484 C.ar    1  UNL1        0.0645
     21 C          63.4016   84.1555   10.5663 C.ar    1  UNL1        0.0635
     22 CL         64.3944   83.3723   11.3733 Cl      1  UNL1       -0.0820
     23 C          63.3432   83.9838    9.0774 C.ar    1  UNL1        0.0307
     24 C          60.5794   83.7829    3.3944 C.3     1  UNL1        0.0540
     25 C          61.4781   84.1429    4.5401 C.ar    1  UNL1        0.0809
     26 C          62.9267   84.5190    4.4400 C.ar    1  UNL1        0.0371
     27 C          63.4298   84.7985    5.8252 C.ar    1  UNL1        0.1016
     28 N          62.2921   84.5952    6.7814 N.ar    1  UNL1       -0.2285
     29 N          61.0859   84.1900    5.9872 N.ar    1  UNL1       -0.1694
     30 C          64.5126   91.5441   16.1380 C.2     1  UNL1        0.2461
     31 O          63.7849   92.7030   16.7521 O.2     1  UNL1       -0.2701
     32 N          65.6828   91.7883   15.2319 N.am    1  UNL1       -0.2957
     33 H          66.1605   91.0277   14.8288 H       1  UNL1        0.1501
     34 C          66.1251   93.1916   14.9399 C.3     1  UNL1        0.1360
     35 C          66.3501   93.6273   13.5223 C.ar    1  UNL1        0.0788
     36 C          66.7652   92.6249   12.4864 C.ar    1  UNL1        0.0165
     37 C          66.9902   93.0607   11.0688 C.ar    1  UNL1        0.0029
     38 C          66.8000   94.4988   10.6871 C.ar    1  UNL1        0.0207
     39 C          66.3849   95.5011   11.7229 C.ar    1  UNL1        0.0985
     40 N          66.1599   95.0654   13.1404 N.ar    1  UNL1       -0.2464
@<TRIPOS>BOND
     1    24    25    1
     2    25    26   ar
     3    26    27   ar
     4    27    28   ar
     5    28    17    1
     6    17    18   ar
     7    18    19   ar
     8    19    20   ar
     9    20     1    1
    10     1     2    2
    11     1     3   am
    12     3     4    1
    13     4     5    1
    14     5     6    1
    15     6     7    1
    16     6     8    1
    17     6     9    1
    18     9    10    2
    19    10    30    1
    20    30    31    2
    21    30    32   am
    22    32    34    1
    23    34    35    1
    24    35    36   ar
    25    36    37   ar
    26    37    38   ar
    27    38    39   ar
    28    39    40   ar
    29     9    11    1
    30    11    12   ar
    31    12    13   ar
    32    13    14   ar
    33    14    15   ar
    34    15    16   ar
    35    20    21   ar
    36    21    22    1
    37    21    23   ar
    38    28    29   ar
    39    29    25   ar
    40    23    17   ar
    41    16     3    1
    42    40    35   ar
    43    16    11   ar
    44    32    33    1
@<TRIPOS>MOLECULE
*****
 40 44 0 0 0
SMALL
GASTEIGER

@<TRIPOS>ATOM
      1 C          63.0686   84.8670   11.7332 C.2     1  UNL1        0.2535
      2 O          63.6958   85.3896   12.9917 O.2     1  UNL1       -0.2695
      3 N          62.3665   85.8070   10.7987 N.am    1  UNL1       -0.2550
      4 C          61.7747   85.1821    9.5702 C.3     1  UNL1        0.1045
      5 C          61.0192   85.8435    8.4558 C.3     1  UNL1        0.0929
      6 C          60.6689   87.2932    8.2947 C.3     1  UNL1        0.2845
      7 F          60.0772   86.6682    7.0662 F       1  UNL1       -0.1995
      8 F          60.0553   88.4647    7.5869 F       1  UNL1       -0.1995
      9 C          60.9877   88.4394    9.2083 C.2     1  UNL1        0.0435
     10 C          60.4934   89.7837    8.7627 C.2     1  UNL1        0.0587
     11 C          61.7354   88.4192   10.5085 C.ar    1  UNL1        0.0149
     12 C          61.8330   89.7915   11.1060 C.ar    1  UNL1        0.0011
     13 C          62.5442   89.9924   12.4112 C.ar    1  UNL1        0.0001
     14 C          63.1578   88.8208   13.1190 C.ar    1  UNL1        0.0013
     15 C          63.0602   87.4485   12.5216 C.ar    1  UNL1        0.0149
     16 C          62.3490   87.2476   11.2163 C.ar    1  UNL1        0.0539
     17 C          63.2938   80.4789   10.7616 C.ar    1  UNL1        0.0837
     18 C          63.8593   81.4884    9.8070 C.ar    1  UNL1        0.0193
     19 C          63.7842   82.9511   10.1310 C.ar    1  UNL1        0.0069
     20 C          63.1437   83.4043   11.4093 C.ar    1  UNL1        0.0645
     21 C          62.5782   82.3948   12.3639 C.ar    1  UNL1        0.0635
     22 CL         61.9377   82.8480   13.6423 Cl      1  UNL1       -0.0820
     23 C          62.6533   80.9321   12.0400 C.ar    1  UNL1        0.0307
     24 C          64.6999   75.8874    8.5659 C.3     1  UNL1        0.0540
     25 C          64.0151   76.9056    9.4285 C.ar    1  UNL1        0.0809
     26 C          62.9535   76.6250   10.4503 C.ar    1  UNL1        0.0371
     27 C          62.5540   77.9294   11.0740 C.ar    1  UNL1        0.1016
     28 N          63.3688   79.0162   10.4377 N.ar    1  UNL1       -0.2285
     29 N          64.2719   78.3836    9.4208 N.ar    1  UNL1       -0.1694
     30 C          59.7337   89.9147    7.4759 C.2     1  UNL1        0.2461
     31 O          58.5136   89.0757    7.2366 O.2     1  UNL1       -0.2701
     32 N          60.1941   90.8847    6.4285 N.am    1  UNL1       -0.2957
     33 H          60.9950   91.4354    6.5855 H       1  UNL1        0.1501
     34 C          59.4344   91.0156    5.1418 C.3     1  UNL1        0.1360
     35 C          60.0358   91.7628    3.9885 C.ar    1  UNL1        0.0788
     36 C          61.5073   91.6621    3.7151 C.ar    1  UNL1        0.0165
     37 C          62.1087   92.4093    2.5618 C.ar    1  UNL1        0.0029
     38 C          61.2386   93.2572    1.6819 C.ar    1  UNL1        0.0207
     39 C          59.7673   93.3578    1.9553 C.ar    1  UNL1        0.0985
     40 N          59.1658   92.6107    3.1085 N.ar    1  UNL1       -0.2464
@<TRIPOS>BOND
     1    24    25    1
     2    25    26   ar
     3    26    27   ar
     4    27    28   ar
     5    28    17    1
     6    17    18   ar
     7    18    19   ar
     8    19    20   ar
     9    20     1    1
    10     1     2    2
    11     1     3   am
    12     3     4    1
    13     4     5    1
    14     5     6    1
    15     6     7    1
    16     6     8    1
    17     6     9    1
    18     9    10    2
    19    10    30    1
    20    30    31    2
    21    30    32   am
    22    32    34    1
    23    34    35    1
    24    35    36   ar
    25    36    37   ar
    26    37    38   ar
    27    38    39   ar
    28    39    40   ar
    29     9    11    1
    30    11    12   ar
    31    12    13   ar
    32    13    14   ar
    33    14    15   ar
    34    15    16   ar
    35    20    21   ar
    36    21    22    1
    37    21    23   ar
    38    28    29   ar
    39    29    25   ar
    40    23    17   ar
    41    16     3    1
    42    40    35   ar
    43    16    11   ar
    44    32    33    1
@<TRIPOS>MOLECULE
*****
 40 44 0 0 0
SMALL
GASTEIGER

@<TRIPOS>ATOM
      1 C          63.0075   84.6889   15.0646 C.2     1  UNL1        0.2535
      2 O          62.8379   84.4603   16.5374 O.2     1  UNL1       -0.2695
      3 N          63.2019   86.0803   14.5390 N.am    1  UNL1       -0.2550
      4 C          63.3615   86.1980   13.0522 C.3     1  UNL1        0.1045
      5 C          63.5697   87.4345   12.2290 C.3     1  UNL1        0.0929
      6 C          63.6696   88.8587   12.6892 C.3     1  UNL1        0.2845
      7 F          63.8292   88.9764   11.2023 F       1  UNL1       -0.1995
      8 F          63.8405   90.3353   12.4877 F       1  UNL1       -0.1995
      9 C          63.5860   89.3980   14.0863 C.2     1  UNL1        0.0435
     10 C          63.7249   90.8857   14.2191 C.2     1  UNL1        0.0587
     11 C          63.3819   88.6465   15.3684 C.ar    1  UNL1        0.0149
     12 C          63.3594   89.5721   16.5485 C.ar    1  UNL1        0.0011
     13 C          63.1659   89.0211   17.9302 C.ar    1  UNL1        0.0001
     14 C          62.9949   87.5445   18.1316 C.ar    1  UNL1        0.0013
     15 C          63.0175   86.6190   16.9515 C.ar    1  UNL1        0.0149
     16 C          63.2110   87.1700   15.5699 C.ar    1  UNL1        0.0539
     17 C          62.9330   81.2004   12.2230 C.ar    1  UNL1        0.0837
     18 C          62.0578   82.3922   11.9706 C.ar    1  UNL1        0.0193
     19 C          62.0826   83.5550   12.9178 C.ar    1  UNL1        0.0069
     20 C          62.9827   83.5260   14.1174 C.ar    1  UNL1        0.0645
     21 C          63.8579   82.3343   14.3698 C.ar    1  UNL1        0.0635
     22 CL         64.7579   82.3054   15.5694 Cl      1  UNL1       -0.0820
     23 C          63.8330   81.1715   13.4226 C.ar    1  UNL1        0.0307
     24 C          62.7846   76.2785   10.3166 C.3     1  UNL1        0.0540
     25 C          62.8399   77.7752   10.3995 C.ar    1  UNL1        0.0809
     26 C          62.8999   78.7210    9.2368 C.ar    1  UNL1        0.0371
     27 C          62.9420   80.1192    9.7784 C.ar    1  UNL1        0.1016
     28 N          62.9081   80.0375   11.2758 N.ar    1  UNL1       -0.2285
     29 N          62.8450   78.5889   11.6597 N.ar    1  UNL1       -0.1694
     30 C          63.9326   91.7315   12.9978 C.2     1  UNL1        0.2461
     31 O          62.9354   91.6897   11.8781 O.2     1  UNL1       -0.2701
     32 N          65.1375   92.6191   12.8962 N.am    1  UNL1       -0.2957
     33 H          65.7921   92.6465   13.6311 H       1  UNL1        0.1501
     34 C          65.3452   93.4648   11.6749 C.3     1  UNL1        0.1360
     35 C          66.5464   93.2429   10.8044 C.ar    1  UNL1        0.0788
     36 C          66.7823   94.1235    9.6131 C.ar    1  UNL1        0.0165
     37 C          67.9835   93.9015    8.7426 C.ar    1  UNL1        0.0029
     38 C          68.9488   92.7990    9.0632 C.ar    1  UNL1        0.0207
     39 C          68.7129   91.9185   10.2544 C.ar    1  UNL1        0.0985
     40 N          67.5117   92.1404   11.1250 N.ar    1  UNL1       -0.2464
@<TRIPOS>BOND
     1    24    25    1
     2    25    26   ar
     3    26    27   ar
     4    27    28   ar
     5    28    17    1
     6    17    18   ar
     7    18    19   ar
     8    19    20   ar
     9    20     1    1
    10     1     2    2
    11     1     3   am
    12     3     4    1
    13     4     5    1
    14     5     6    1
    15     6     7    1
    16     6     8    1
    17     6     9    1
    18     9    10    2
    19    10    30    1
    20    30    31    2
    21    30    32   am
    22    32    34    1
    23    34    35    1
    24    35    36   ar
    25    36    37   ar
    26    37    38   ar
    27    38    39   ar
    28    39    40   ar
    29     9    11    1
    30    11    12   ar
    31    12    13   ar
    32    13    14   ar
    33    14    15   ar
    34    15    16   ar
    35    20    21   ar
    36    21    22    1
    37    21    23   ar
    38    28    29   ar
    39    29    25   ar
    40    23    17   ar
    41    16     3    1
    42    40    35   ar
    43    16    11   ar
    44    32    33    1
