@<TRIPOS>MOLECULE
*****
 26 29 0 0 0
SMALL
GASTEIGER

@<TRIPOS>ATOM
      1 C          62.0053   89.2187   11.5203 C.ar    1  UNL1        0.1917
      2 N          61.9993   88.7201   12.9350 N.ar    1  UNL1       -0.1268
      3 N          63.0153   89.5074   13.7082 N.ar    1  UNL1       -0.1316
      4 C          63.6493   90.4925   12.7714 C.ar    1  UNL1        0.1595
      5 N          63.0251   90.3141   11.4191 N.ar    1  UNL1       -0.2940
      6 C          63.4659   91.1720   10.2705 C.3     1  UNL1        0.1302
      7 C          64.5310   92.2085   10.4740 C.3     1  UNL1        0.1185
      8 N          65.1552   92.3870   11.8262 N.am    1  UNL1       -0.2708
      9 C          66.2202   93.4234   12.0298 C.2     1  UNL1        0.2493
     10 O          66.8444   93.6019   13.3820 O.2     1  UNL1       -0.2699
     11 C          64.7143   91.5289   12.9749 C.3     1  UNL1        0.1129
     12 C          64.6336   90.9626   14.3616 C.3     1  UNL1        0.0277
     13 C          65.7514   92.3687   13.6601 C.3     1  UNL1        0.0277
     14 C          66.6611   94.2814   10.8811 C.ar    1  UNL1        0.0537
     15 C          66.2667   95.7277   10.8306 C.ar    1  UNL1        0.0068
     16 C          66.7076   96.5857    9.6819 C.ar    1  UNL1        0.0298
     17 C          67.5428   95.9973    8.5836 C.ar    1  UNL1        0.1401
     18 F          67.9837   96.8553    7.4349 F       1  UNL1       -0.2042
     19 C          67.9372   94.5510    8.6341 C.ar    1  UNL1        0.0298
     20 C          67.4963   93.6930    9.7828 C.ar    1  UNL1        0.0068
     21 C          59.2089   88.9749    7.0480 C.3     1  UNL1        0.0744
     22 C          59.8577   88.5989    8.3472 C.ar    1  UNL1        0.1481
     23 N          59.7745   87.2605    9.0193 N.ar    1  UNL1       -0.1929
     24 S          60.5689   87.3298   10.2899 S.2     1  UNL1        0.0369
     25 C          61.1430   88.7110   10.4028 C.ar    1  UNL1        0.1652
     26 N          60.7035   89.4954    9.2022 N.ar    1  UNL1       -0.2190
@<TRIPOS>BOND
     1    21    22    1
     2    22    23   ar
     3    23    24   ar
     4    24    25   ar
     5    25     1    1
     6     1     2   ar
     7     2     3   ar
     8     3     4   ar
     9     4     5   ar
    10     5     6    1
    11     6     7    1
    12     7     8    1
    13     8     9   am
    14     9    10    2
    15     9    14    1
    16    14    15   ar
    17    15    16   ar
    18    16    17   ar
    19    17    18    1
    20    17    19   ar
    21    19    20   ar
    22     8    11    1
    23    11    12    1
    24    11    13    1
    25    25    26   ar
    26    26    22   ar
    27     5     1   ar
    28    20    14   ar
    29    11     4    1
@<TRIPOS>MOLECULE
*****
 26 29 0 0 0
SMALL
GASTEIGER

@<TRIPOS>ATOM
      1 C          66.1220   94.0056   11.9079 C.ar    1  UNL1        0.1917
      2 N          66.8166   94.0749   13.2355 N.ar    1  UNL1       -0.1268
      3 N          66.4316   92.8584   14.0241 N.ar    1  UNL1       -0.1316
      4 C          65.4990   92.0373   13.1839 C.ar    1  UNL1        0.1595
      5 N          65.3076   92.7463   11.8759 N.ar    1  UNL1       -0.2940
      6 C          64.4165   92.1536   10.8249 C.3     1  UNL1        0.1302
      7 C          63.7168   90.8519   11.0817 C.3     1  UNL1        0.1185
      8 N          63.9082   90.1429   12.3896 N.am    1  UNL1       -0.2708
      9 C          63.2085   88.8412   12.6465 C.2     1  UNL1        0.2493
     10 O          63.3998   88.1322   13.9544 O.2     1  UNL1       -0.2699
     11 C          64.7993   90.7356   13.4407 C.3     1  UNL1        0.1129
     12 C          65.5362   90.8955   14.7374 C.3     1  UNL1        0.0277
     13 C          64.3555   89.4894   14.1479 C.3     1  UNL1        0.0277
     14 C          62.3174   88.2486   11.5955 C.ar    1  UNL1        0.0537
     15 C          61.2688   89.0951   10.9367 C.ar    1  UNL1        0.0068
     16 C          60.3778   88.5023    9.8856 C.ar    1  UNL1        0.0298
     17 C          60.5353   87.0632    9.4933 C.ar    1  UNL1        0.1401
     18 F          59.6442   86.4705    8.4422 F       1  UNL1       -0.2042
     19 C          61.5838   86.2167   10.1521 C.ar    1  UNL1        0.0298
     20 C          62.4749   86.8093   11.2031 C.ar    1  UNL1        0.0068
     21 C          67.9163   96.7863    7.7935 C.3     1  UNL1        0.0744
     22 C          67.0486   96.2960    8.9144 C.ar    1  UNL1        0.1481
     23 N          65.7124   96.8552    9.3045 N.ar    1  UNL1       -0.1929
     24 S          65.2027   96.0652   10.4733 S.2     1  UNL1        0.0369
     25 C          66.2238   95.0179   10.8056 C.ar    1  UNL1        0.1652
     26 N          67.3646   95.1605    9.8422 N.ar    1  UNL1       -0.2190
@<TRIPOS>BOND
     1    21    22    1
     2    22    23   ar
     3    23    24   ar
     4    24    25   ar
     5    25     1    1
     6     1     2   ar
     7     2     3   ar
     8     3     4   ar
     9     4     5   ar
    10     5     6    1
    11     6     7    1
    12     7     8    1
    13     8     9   am
    14     9    10    2
    15     9    14    1
    16    14    15   ar
    17    15    16   ar
    18    16    17   ar
    19    17    18    1
    20    17    19   ar
    21    19    20   ar
    22     8    11    1
    23    11    12    1
    24    11    13    1
    25    25    26   ar
    26    26    22   ar
    27     5     1   ar
    28    20    14   ar
    29    11     4    1
@<TRIPOS>MOLECULE
*****
 26 29 0 0 0
SMALL
GASTEIGER

@<TRIPOS>ATOM
      1 C          64.2972   91.0388   13.3956 C.ar    1  UNL1        0.1917
      2 N          63.6045   91.8876   12.3710 N.ar    1  UNL1       -0.1268
      3 N          62.8150   90.9803   11.4747 N.ar    1  UNL1       -0.1316
      4 C          63.0196   89.5708   11.9453 C.ar    1  UNL1        0.1595
      5 N          63.9357   89.6070   13.1325 N.ar    1  UNL1       -0.2940
      6 C          64.3224   88.3315   13.8207 C.3     1  UNL1        0.1302
      7 C          63.7930   87.0197   13.3216 C.3     1  UNL1        0.1185
      8 N          62.8769   86.9835   12.1343 N.am    1  UNL1       -0.2708
      9 C          62.3475   85.6718   11.6352 C.2     1  UNL1        0.2493
     10 O          61.4314   85.6357   10.4480 O.2     1  UNL1       -0.2699
     11 C          62.4902   88.2591   11.4462 C.3     1  UNL1        0.1129
     12 C          61.8414   89.1916   10.4666 C.3     1  UNL1        0.0277
     13 C          61.7355   87.2712   10.6069 C.3     1  UNL1        0.0277
     14 C          62.7341   84.3963   12.3234 C.ar    1  UNL1        0.0537
     15 C          62.2977   84.1442   13.7361 C.ar    1  UNL1        0.0068
     16 C          62.6844   82.8686   14.4243 C.ar    1  UNL1        0.0298
     17 C          63.5075   81.8453   13.6996 C.ar    1  UNL1        0.1401
     18 F          63.8942   80.5697   14.3877 F       1  UNL1       -0.2042
     19 C          63.9440   82.0974   12.2868 C.ar    1  UNL1        0.0298
     20 C          63.5573   83.3729   11.5987 C.ar    1  UNL1        0.0068
     21 C          68.5969   92.4874   16.0965 C.3     1  UNL1        0.0744
     22 C          67.1703   92.2006   15.7324 C.ar    1  UNL1        0.1481
     23 N          65.9774   92.3955   16.6208 N.ar    1  UNL1       -0.1929
     24 S          64.7559   91.9840   15.8535 S.2     1  UNL1        0.0369
     25 C          65.1939   91.5348   14.4910 C.ar    1  UNL1        0.1652
     26 N          66.6861   91.6687   14.4161 N.ar    1  UNL1       -0.2190
@<TRIPOS>BOND
     1    21    22    1
     2    22    23   ar
     3    23    24   ar
     4    24    25   ar
     5    25     1    1
     6     1     2   ar
     7     2     3   ar
     8     3     4   ar
     9     4     5   ar
    10     5     6    1
    11     6     7    1
    12     7     8    1
    13     8     9   am
    14     9    10    2
    15     9    14    1
    16    14    15   ar
    17    15    16   ar
    18    16    17   ar
    19    17    18    1
    20    17    19   ar
    21    19    20   ar
    22     8    11    1
    23    11    12    1
    24    11    13    1
    25    25    26   ar
    26    26    22   ar
    27     5     1   ar
    28    20    14   ar
    29    11     4    1
@<TRIPOS>MOLECULE
*****
 26 29 0 0 0
SMALL
GASTEIGER

@<TRIPOS>ATOM
      1 C          61.4017   89.0303    9.9625 C.ar    1  UNL1        0.1917
      2 N          62.0185   90.2815   10.5141 N.ar    1  UNL1       -0.1268
      3 N          62.8537   89.9021   11.7010 N.ar    1  UNL1       -0.1316
      4 C          62.7531   88.4166   11.8829 C.ar    1  UNL1        0.1595
      5 N          61.8557   87.8778   10.8084 N.ar    1  UNL1       -0.2940
      6 C          61.5679   86.4073   10.7391 C.3     1  UNL1        0.1302
      7 C          62.1775   85.4756   11.7443 C.3     1  UNL1        0.1185
      8 N          63.0748   86.0144   12.8188 N.am    1  UNL1       -0.2708
      9 C          63.6844   85.0827   13.8239 C.2     1  UNL1        0.2493
     10 O          64.5818   85.6215   14.8983 O.2     1  UNL1       -0.2699
     11 C          63.3626   87.4849   12.8880 C.3     1  UNL1        0.1129
     12 C          63.9307   88.7892   13.3638 C.3     1  UNL1        0.0277
     13 C          64.1695   87.0062   14.0584 C.3     1  UNL1        0.0277
     14 C          63.3966   83.6122   13.7546 C.ar    1  UNL1        0.0537
     15 C          62.2337   83.0392   14.5092 C.ar    1  UNL1        0.0068
     16 C          61.9459   81.5687   14.4398 C.ar    1  UNL1        0.0298
     17 C          62.8210   80.6712   13.6160 C.ar    1  UNL1        0.1401
     18 F          62.5332   79.2006   13.5467 F       1  UNL1       -0.2042
     19 C          63.9839   81.2442   12.8615 C.ar    1  UNL1        0.0298
     20 C          64.2717   82.7147   12.9307 C.ar    1  UNL1        0.0068
     21 C          58.7238   90.2890    5.5893 C.3     1  UNL1        0.0744
     22 C          59.2600   89.5250    6.7636 C.ar    1  UNL1        0.1481
     23 N          58.9184   88.1098    7.1250 N.ar    1  UNL1       -0.1929
     24 S          59.6792   87.7523    8.3674 S.2     1  UNL1        0.0369
     25 C          60.4909   88.9465    8.7737 C.ar    1  UNL1        0.1652
     26 N          60.2318   90.0421    7.7825 N.ar    1  UNL1       -0.2190
@<TRIPOS>BOND
     1    21    22    1
     2    22    23   ar
     3    23    24   ar
     4    24    25   ar
     5    25     1    1
     6     1     2   ar
     7     2     3   ar
     8     3     4   ar
     9     4     5   ar
    10     5     6    1
    11     6     7    1
    12     7     8    1
    13     8     9   am
    14     9    10    2
    15     9    14    1
    16    14    15   ar
    17    15    16   ar
    18    16    17   ar
    19    17    18    1
    20    17    19   ar
    21    19    20   ar
    22     8    11    1
    23    11    12    1
    24    11    13    1
    25    25    26   ar
    26    26    22   ar
    27     5     1   ar
    28    20    14   ar
    29    11     4    1
@<TRIPOS>MOLECULE
*****
 26 29 0 0 0
SMALL
GASTEIGER

@<TRIPOS>ATOM
      1 C          64.0360   90.7618   14.2631 C.ar    1  UNL1        0.1917
      2 N          63.8048   91.3825   15.6089 N.ar    1  UNL1       -0.1268
      3 N          63.4637   90.2851   16.5729 N.ar    1  UNL1       -0.1316
      4 C          63.4840   88.9862   15.8229 C.ar    1  UNL1        0.1595
      5 N          63.8377   89.2809   14.3953 N.ar    1  UNL1       -0.2940
      6 C          63.9335   88.1626   13.4002 C.3     1  UNL1        0.1302
      7 C          63.6756   86.7496   13.8327 C.3     1  UNL1        0.1185
      8 N          63.3219   86.4550   15.2603 N.am    1  UNL1       -0.2708
      9 C          63.0640   85.0420   15.6928 C.2     1  UNL1        0.2493
     10 O          62.7103   84.7474   17.1204 O.2     1  UNL1       -0.2699
     11 C          63.2261   87.5733   16.2554 C.3     1  UNL1        0.1129
     12 C          63.0153   88.2870   17.5578 C.3     1  UNL1        0.0277
     13 C          62.8950   86.4082   17.1402 C.3     1  UNL1        0.0277
     14 C          63.1598   83.9238   14.6977 C.ar    1  UNL1        0.0537
     15 C          62.0727   82.8932   14.6206 C.ar    1  UNL1        0.0068
     16 C          62.1685   81.7749   13.6254 C.ar    1  UNL1        0.0298
     17 C          63.3515   81.6872   12.7074 C.ar    1  UNL1        0.1401
     18 F          63.4474   80.5689   11.7122 F       1  UNL1       -0.2042
     19 C          64.4387   82.7178   12.7845 C.ar    1  UNL1        0.0298
     20 C          64.3429   83.8361   13.7796 C.ar    1  UNL1        0.0068
     21 C          66.3208   94.1234   10.8927 C.3     1  UNL1        0.0744
     22 C          65.4515   93.0388   11.4565 C.ar    1  UNL1        0.1481
     23 N          64.4754   92.2009   10.6851 N.ar    1  UNL1       -0.1929
     24 S          63.8263   91.2458   11.6426 S.2     1  UNL1        0.0369
     25 C          64.4013   91.4937   13.0057 C.ar    1  UNL1        0.1652
     26 N          65.4057   92.6018   12.8907 N.ar    1  UNL1       -0.2190
@<TRIPOS>BOND
     1    21    22    1
     2    22    23   ar
     3    23    24   ar
     4    24    25   ar
     5    25     1    1
     6     1     2   ar
     7     2     3   ar
     8     3     4   ar
     9     4     5   ar
    10     5     6    1
    11     6     7    1
    12     7     8    1
    13     8     9   am
    14     9    10    2
    15     9    14    1
    16    14    15   ar
    17    15    16   ar
    18    16    17   ar
    19    17    18    1
    20    17    19   ar
    21    19    20   ar
    22     8    11    1
    23    11    12    1
    24    11    13    1
    25    25    26   ar
    26    26    22   ar
    27     5     1   ar
    28    20    14   ar
    29    11     4    1
@<TRIPOS>MOLECULE
*****
 26 29 0 0 0
SMALL
GASTEIGER

@<TRIPOS>ATOM
      1 C          62.4126   84.9498   11.9860 C.ar    1  UNL1        0.1917
      2 N          61.5895   84.9577   10.7321 N.ar    1  UNL1       -0.1268
      3 N          61.5272   86.3689   10.2275 N.ar    1  UNL1       -0.1316
      4 C          62.3119   87.2331   11.1696 C.ar    1  UNL1        0.1595
      5 N          62.8590   86.3560   12.2564 N.ar    1  UNL1       -0.2940
      6 C          63.6931   86.9512   13.3519 C.3     1  UNL1        0.1302
      7 C          63.9801   88.4235   13.3605 C.3     1  UNL1        0.1185
      8 N          63.4329   89.3006   12.2737 N.am    1  UNL1       -0.2708
      9 C          63.7198   90.7729   12.2823 C.2     1  UNL1        0.2493
     10 O          63.1726   91.6500   11.1954 O.2     1  UNL1       -0.2699
     11 C          62.5987   88.7054   11.1782 C.3     1  UNL1        0.1129
     12 C          61.7635   88.6101    9.9358 C.3     1  UNL1        0.0277
     13 C          62.5956   90.1446   10.7553 C.3     1  UNL1        0.0277
     14 C          64.5538   91.3680   13.3778 C.ar    1  UNL1        0.0537
     15 C          65.8279   92.0860   13.0445 C.ar    1  UNL1        0.0068
     16 C          66.6620   92.6812   14.1401 C.ar    1  UNL1        0.0298
     17 C          66.2220   92.5583   15.5688 C.ar    1  UNL1        0.1401
     18 F          67.0561   93.1534   16.6643 F       1  UNL1       -0.2042
     19 C          64.9479   91.8402   15.9020 C.ar    1  UNL1        0.0298
     20 C          64.1138   91.2451   14.8066 C.ar    1  UNL1        0.0068
     21 C          62.7673   79.9615   13.6807 C.3     1  UNL1        0.0744
     22 C          62.8960   81.4539   13.6017 C.ar    1  UNL1        0.1481
     23 N          63.5561   82.3370   14.6188 N.ar    1  UNL1       -0.1929
     24 S          63.4553   83.7541   14.1373 S.2     1  UNL1        0.0369
     25 C          62.7330   83.7467   12.8227 C.ar    1  UNL1        0.1652
     26 N          62.3873   82.3251   12.4916 N.ar    1  UNL1       -0.2190
@<TRIPOS>BOND
     1    21    22    1
     2    22    23   ar
     3    23    24   ar
     4    24    25   ar
     5    25     1    1
     6     1     2   ar
     7     2     3   ar
     8     3     4   ar
     9     4     5   ar
    10     5     6    1
    11     6     7    1
    12     7     8    1
    13     8     9   am
    14     9    10    2
    15     9    14    1
    16    14    15   ar
    17    15    16   ar
    18    16    17   ar
    19    17    18    1
    20    17    19   ar
    21    19    20   ar
    22     8    11    1
    23    11    12    1
    24    11    13    1
    25    25    26   ar
    26    26    22   ar
    27     5     1   ar
    28    20    14   ar
    29    11     4    1
@<TRIPOS>MOLECULE
*****
 26 29 0 0 0
SMALL
GASTEIGER

@<TRIPOS>ATOM
      1 C          62.1040   88.5518   11.6730 C.ar    1  UNL1        0.1917
      2 N          62.8131   89.3564   12.7217 N.ar    1  UNL1       -0.1268
      3 N          63.5831   88.4078   13.5918 N.ar    1  UNL1       -0.1316
      4 C          63.3499   87.0169   13.0809 C.ar    1  UNL1        0.1595
      5 N          62.4358   87.1059   11.8950 N.ar    1  UNL1       -0.2940
      6 C          62.0236   85.8589   11.1705 C.3     1  UNL1        0.1302
      7 C          62.5255   84.5227   11.6319 C.3     1  UNL1        0.1185
      8 N          63.4396   84.4337   12.8178 N.am    1  UNL1       -0.2708
      9 C          63.9416   83.0976   13.2793 C.2     1  UNL1        0.2493
     10 O          64.8557   83.0086   14.4652 O.2     1  UNL1       -0.2699
     11 C          63.8518   85.6808   13.5424 C.3     1  UNL1        0.1129
     12 C          64.5188   86.5713   14.5485 C.3     1  UNL1        0.0277
     13 C          64.5854   84.6539   14.3532 C.3     1  UNL1        0.0277
     14 C          63.5294   81.8506   12.5547 C.ar    1  UNL1        0.0537
     15 C          62.9456   80.6983   13.3173 C.ar    1  UNL1        0.0068
     16 C          62.5335   79.4512   12.5927 C.ar    1  UNL1        0.0298
     17 C          62.7050   79.3565   11.1056 C.ar    1  UNL1        0.1401
     18 F          62.2928   78.1094   10.3810 F       1  UNL1       -0.2042
     19 C          63.2888   80.5087   10.3430 C.ar    1  UNL1        0.0298
     20 C          63.7009   81.7558   11.0676 C.ar    1  UNL1        0.0068
     21 C          59.5487   89.1279    7.0884 C.3     1  UNL1        0.0744
     22 C          60.0441   89.3621    8.4847 C.ar    1  UNL1        0.1481
     23 N          59.6682   90.5114    9.3724 N.ar    1  UNL1       -0.1929
     24 S          60.3942   90.3477   10.6748 S.2     1  UNL1        0.0369
     25 C          61.2186   89.0973   10.5920 C.ar    1  UNL1        0.1652
     26 N          61.0023   88.4882    9.2384 N.ar    1  UNL1       -0.2190
@<TRIPOS>BOND
     1    21    22    1
     2    22    23   ar
     3    23    24   ar
     4    24    25   ar
     5    25     1    1
     6     1     2   ar
     7     2     3   ar
     8     3     4   ar
     9     4     5   ar
    10     5     6    1
    11     6     7    1
    12     7     8    1
    13     8     9   am
    14     9    10    2
    15     9    14    1
    16    14    15   ar
    17    15    16   ar
    18    16    17   ar
    19    17    18    1
    20    17    19   ar
    21    19    20   ar
    22     8    11    1
    23    11    12    1
    24    11    13    1
    25    25    26   ar
    26    26    22   ar
    27     5     1   ar
    28    20    14   ar
    29    11     4    1
@<TRIPOS>MOLECULE
*****
 26 29 0 0 0
SMALL
GASTEIGER

@<TRIPOS>ATOM
      1 C          59.6315   88.6130    7.3982 C.ar    1  UNL1        0.1917
      2 N          59.2422   87.1666    7.3190 N.ar    1  UNL1       -0.1268
      3 N          59.9089   86.4445    8.4522 N.ar    1  UNL1       -0.1316
      4 C          60.7102   87.4446    9.2317 C.ar    1  UNL1        0.1595
      5 N          60.5387   88.7849    8.5803 N.ar    1  UNL1       -0.2940
      6 C          61.2309   89.9886    9.1477 C.3     1  UNL1        0.1302
      7 C          62.0945   89.8521   10.3666 C.3     1  UNL1        0.1185
      8 N          62.2660   88.5118   11.0180 N.am    1  UNL1       -0.2708
      9 C          63.1296   88.3753   12.2368 C.2     1  UNL1        0.2493
     10 O          63.3011   87.0351   12.8882 O.2     1  UNL1       -0.2699
     11 C          61.5738   87.3081   10.4505 C.3     1  UNL1        0.1129
     12 C          61.1278   85.8853   10.2866 C.3     1  UNL1        0.0277
     13 C          62.2825   86.6774   11.6124 C.3     1  UNL1        0.0277
     14 C          63.8217   89.5790   12.8041 C.ar    1  UNL1        0.0537
     15 C          64.3422   89.5514   14.2107 C.ar    1  UNL1        0.0068
     16 C          65.0343   90.7552   14.7781 C.ar    1  UNL1        0.0298
     17 C          65.2061   91.9865   13.9389 C.ar    1  UNL1        0.1401
     18 F          65.8982   93.1903   14.5063 F       1  UNL1       -0.2042
     19 C          64.6856   92.0142   12.5323 C.ar    1  UNL1        0.0298
     20 C          63.9935   90.8105   11.9650 C.ar    1  UNL1        0.0068
     21 C          59.7150   92.5664    3.8990 C.3     1  UNL1        0.0744
     22 C          59.2293   91.5145    4.8516 C.ar    1  UNL1        0.1481
     23 N          57.7963   91.2173    5.1810 N.ar    1  UNL1       -0.1929
     24 S          57.7726   90.0941    6.1751 S.2     1  UNL1        0.0369
     25 C          59.1908   89.6973    6.4600 C.ar    1  UNL1        0.1652
     26 N          60.0911   90.5751    5.6421 N.ar    1  UNL1       -0.2190
@<TRIPOS>BOND
     1    21    22    1
     2    22    23   ar
     3    23    24   ar
     4    24    25   ar
     5    25     1    1
     6     1     2   ar
     7     2     3   ar
     8     3     4   ar
     9     4     5   ar
    10     5     6    1
    11     6     7    1
    12     7     8    1
    13     8     9   am
    14     9    10    2
    15     9    14    1
    16    14    15   ar
    17    15    16   ar
    18    16    17   ar
    19    17    18    1
    20    17    19   ar
    21    19    20   ar
    22     8    11    1
    23    11    12    1
    24    11    13    1
    25    25    26   ar
    26    26    22   ar
    27     5     1   ar
    28    20    14   ar
    29    11     4    1
@<TRIPOS>MOLECULE
*****
 26 29 0 0 0
SMALL
GASTEIGER

@<TRIPOS>ATOM
      1 C          63.7648   89.4427   13.7935 C.ar    1  UNL1        0.1917
      2 N          63.7665   89.8040   15.2493 N.ar    1  UNL1       -0.1268
      3 N          63.6462   88.5361   16.0417 N.ar    1  UNL1       -0.1316
      4 C          63.5701   87.3912   15.0756 C.ar    1  UNL1        0.1595
      5 N          63.6434   87.9515   13.6861 N.ar    1  UNL1       -0.2940
      6 C          63.5901   87.0314   12.5027 C.3     1  UNL1        0.1302
      7 C          63.4636   85.5510   12.7087 C.3     1  UNL1        0.1185
      8 N          63.3903   84.9907   14.0982 N.am    1  UNL1       -0.2708
      9 C          63.2638   83.5103   14.3042 C.2     1  UNL1        0.2493
     10 O          63.1905   82.9500   15.6937 O.2     1  UNL1       -0.2699
     11 C          63.4436   85.9108   15.2817 C.3     1  UNL1        0.1129
     12 C          63.4542   86.3724   16.7089 C.3     1  UNL1        0.0277
     13 C          63.3207   84.5907   15.9833 C.3     1  UNL1        0.0277
     14 C          63.2105   82.5903   13.1207 C.ar    1  UNL1        0.0537
     15 C          63.7758   83.0301   11.8028 C.ar    1  UNL1        0.0068
     16 C          63.7225   82.1100   10.6193 C.ar    1  UNL1        0.0298
     17 C          63.1039   80.7501   10.7538 C.ar    1  UNL1        0.1401
     18 F          63.0506   79.8300    9.5702 F       1  UNL1       -0.2042
     19 C          62.5386   80.3103   12.0717 C.ar    1  UNL1        0.0298
     20 C          62.5919   81.2303   13.2552 C.ar    1  UNL1        0.0068
     21 C          65.4301   93.3296   10.6314 C.3     1  UNL1        0.0744
     22 C          64.6320   92.1905   11.1930 C.ar    1  UNL1        0.1481
     23 N          63.4143   91.5753   10.5694 N.ar    1  UNL1       -0.1929
     24 S          62.9412   90.4711   11.4678 S.2     1  UNL1        0.0369
     25 C          63.8665   90.4038   12.6464 C.ar    1  UNL1        0.1652
     26 N          64.9115   91.4664   12.4766 N.ar    1  UNL1       -0.2190
@<TRIPOS>BOND
     1    21    22    1
     2    22    23   ar
     3    23    24   ar
     4    24    25   ar
     5    25     1    1
     6     1     2   ar
     7     2     3   ar
     8     3     4   ar
     9     4     5   ar
    10     5     6    1
    11     6     7    1
    12     7     8    1
    13     8     9   am
    14     9    10    2
    15     9    14    1
    16    14    15   ar
    17    15    16   ar
    18    16    17   ar
    19    17    18    1
    20    17    19   ar
    21    19    20   ar
    22     8    11    1
    23    11    12    1
    24    11    13    1
    25    25    26   ar
    26    26    22   ar
    27     5     1   ar
    28    20    14   ar
    29    11     4    1
