@<TRIPOS>MOLECULE
*****
 33 36 0 0 0
SMALL
GASTEIGER

@<TRIPOS>ATOM
      1 N          63.4859   91.3365   11.1259 N.3     1  UNL1       -0.3217
      2 C          64.1998   91.0300   12.4090 C.3     1  UNL1        0.0597
      3 C          63.6278   90.0243   13.3638 C.3     1  UNL1        0.0464
      4 C          64.3417   89.7178   14.6469 C.2     1  UNL1        0.0285
      5 C          65.6276   90.4171   14.9753 C.2     1  UNL1       -0.0255
      6 C          66.1995   91.4227   14.0205 C.3     1  UNL1        0.0315
      7 C          65.4856   91.7292   12.7374 C.3     1  UNL1        0.0413
      8 H          62.6365   90.7749   11.0669 H       1  UNL1        0.1188
      9 H          64.0944   91.1165   10.3373 H       1  UNL1        0.1188
     10 C          63.7698   88.7122   15.6016 C.2     1  UNL1        0.2451
     11 O          63.3942   89.1281   16.9930 O.2     1  UNL1       -0.2703
     12 N          63.5735   87.2906   15.1650 N.am    1  UNL1       -0.2673
     13 C          63.0016   86.2850   16.1198 C.3     1  UNL1        0.1186
     14 C          62.8053   84.8635   15.6831 C.3     1  UNL1        0.1301
     15 N          63.1809   84.4476   14.2917 N.ar    1  UNL1       -0.2924
     16 C          63.7528   85.4532   13.3370 C.ar    1  UNL1        0.1636
     17 N          64.0279   84.7550   12.0382 N.ar    1  UNL1       -0.1316
     18 N          63.6261   83.3179   12.1903 N.ar    1  UNL1       -0.1249
     19 C          63.1026   83.1278   13.5830 C.ar    1  UNL1        0.2383
     20 C          63.9491   86.8747   13.7736 C.3     1  UNL1        0.1599
     21 C          62.5906   81.8436   14.1649 C.3     1  UNL1        0.4524
     22 F          62.0788   80.5593   14.7468 F       1  UNL1       -0.1632
     23 F          63.9163   81.1944   13.8982 F       1  UNL1       -0.1632
     24 F          61.2650   82.4929   14.4316 F       1  UNL1       -0.1632
     25 C          66.0575   92.7348   11.7827 C.ar    1  UNL1       -0.0163
     26 C          65.8454   94.2005   12.0211 C.ar    1  UNL1        0.0279
     27 C          66.4174   95.2061   11.0663 C.ar    1  UNL1        0.1693
     28 F          66.2053   96.6718   11.3047 F       1  UNL1       -0.2017
     29 C          67.2014   94.7461    9.8731 C.ar    1  UNL1        0.1946
     30 F          67.7733   95.7517    8.9184 F       1  UNL1       -0.1994
     31 C          67.4134   93.2804    9.6347 C.ar    1  UNL1        0.1693
     32 F          68.1974   92.8204    8.4415 F       1  UNL1       -0.2017
     33 C          66.8415   92.2748   10.5894 C.ar    1  UNL1        0.0279
@<TRIPOS>BOND
     1     2     1    1
     2     2     3    1
     3     3     4    1
     4     4    10    1
     5    10    11    2
     6    10    12   am
     7    12    13    1
     8    13    14    1
     9    14    15    1
    10    15    16   ar
    11    16    17   ar
    12    17    18   ar
    13    18    19   ar
    14    19    21    1
    15    21    22    1
    16    21    23    1
    17    21    24    1
    18    16    20    1
    19     4     5    2
    20     5     6    1
    21     6     7    1
    22     7    25    1
    23    25    26   ar
    24    26    27   ar
    25    27    28    1
    26    27    29   ar
    27    29    30    1
    28    29    31   ar
    29    31    32    1
    30    31    33   ar
    31     7     2    1
    32    33    25   ar
    33    20    12    1
    34    19    15   ar
    35     1     8    1
    36     1     9    1
@<TRIPOS>MOLECULE
*****
 33 36 0 0 0
SMALL
GASTEIGER

@<TRIPOS>ATOM
      1 N          63.4313   91.3436   16.5948 N.3     1  UNL1       -0.3217
      2 C          63.7643   90.0558   15.9015 C.3     1  UNL1        0.0597
      3 C          63.2121   88.7607   16.4192 C.3     1  UNL1        0.0464
      4 C          63.5451   87.4729   15.7259 C.2     1  UNL1        0.0285
      5 C          64.4303   87.4802   14.5149 C.2     1  UNL1       -0.0255
      6 C          64.9825   88.7753   13.9973 C.3     1  UNL1        0.0315
      7 C          64.6495   90.0631   14.6906 C.3     1  UNL1        0.0413
      8 H          62.8238   91.1535   17.3918 H       1  UNL1        0.1188
      9 H          62.9532   91.9665   15.9438 H       1  UNL1        0.1188
     10 C          62.9929   86.1779   16.2435 C.2     1  UNL1        0.2451
     11 O          62.4422   86.1008   17.6366 O.2     1  UNL1       -0.2703
     12 N          62.9915   84.9599   15.3679 N.am    1  UNL1       -0.2673
     13 C          62.4393   83.6648   15.8855 C.3     1  UNL1        0.1186
     14 C          62.4379   82.4469   15.0100 C.3     1  UNL1        0.1301
     15 N          62.9887   82.5240   13.6169 N.ar    1  UNL1       -0.2924
     16 C          63.5408   83.8190   13.0993 C.ar    1  UNL1        0.1636
     17 N          64.0131   83.5927   11.6937 N.ar    1  UNL1       -0.1316
     18 N          63.7528   82.1578   11.3426 N.ar    1  UNL1       -0.1249
     19 C          63.1196   81.4972   12.5312 C.ar    1  UNL1        0.2383
     20 C          63.5422   85.0370   13.9748 C.3     1  UNL1        0.1599
     21 C          62.6925   80.0620   12.6187 C.3     1  UNL1        0.4524
     22 F          62.2654   78.6268   12.7064 F       1  UNL1       -0.1632
     23 F          62.7491   80.1366   14.1158 F       1  UNL1       -0.1632
     24 F          62.6359   79.9876   11.1216 F       1  UNL1       -0.1632
     25 C          65.2016   91.3581   14.1730 C.ar    1  UNL1       -0.0163
     26 C          66.0976   92.1915   15.0406 C.ar    1  UNL1        0.0279
     27 C          66.6498   93.4866   14.5229 C.ar    1  UNL1        0.1693
     28 F          67.5457   94.3200   15.3904 F       1  UNL1       -0.2017
     29 C          66.3060   93.9482   13.1377 C.ar    1  UNL1        0.1946
     30 F          66.8581   95.2433   12.6201 F       1  UNL1       -0.1994
     31 C          65.4100   93.1148   12.2702 C.ar    1  UNL1        0.1693
     32 F          65.0662   93.5764   10.8850 F       1  UNL1       -0.2017
     33 C          64.8578   91.8198   12.7878 C.ar    1  UNL1        0.0279
@<TRIPOS>BOND
     1     2     1    1
     2     2     3    1
     3     3     4    1
     4     4    10    1
     5    10    11    2
     6    10    12   am
     7    12    13    1
     8    13    14    1
     9    14    15    1
    10    15    16   ar
    11    16    17   ar
    12    17    18   ar
    13    18    19   ar
    14    19    21    1
    15    21    22    1
    16    21    23    1
    17    21    24    1
    18    16    20    1
    19     4     5    2
    20     5     6    1
    21     6     7    1
    22     7    25    1
    23    25    26   ar
    24    26    27   ar
    25    27    28    1
    26    27    29   ar
    27    29    30    1
    28    29    31   ar
    29    31    32    1
    30    31    33   ar
    31     7     2    1
    32    33    25   ar
    33    20    12    1
    34    19    15   ar
    35     1     8    1
    36     1     9    1
@<TRIPOS>MOLECULE
*****
 33 36 0 0 0
SMALL
GASTEIGER

@<TRIPOS>ATOM
      1 N          61.9562   88.9521   10.3472 N.3     1  UNL1       -0.3217
      2 C          61.1073   88.4626    9.2115 C.3     1  UNL1        0.0597
      3 C          60.3462   89.4418    8.3678 C.3     1  UNL1        0.0464
      4 C          59.4973   88.9524    7.2321 C.2     1  UNL1        0.0285
      5 C          59.4095   87.4836    6.9402 C.2     1  UNL1       -0.0255
      6 C          60.1707   86.5044    7.7839 C.3     1  UNL1        0.0315
      7 C          61.0195   86.9939    8.9196 C.3     1  UNL1        0.0413
      8 H          61.8994   89.9691   10.4004 H       1  UNL1        0.1188
      9 H          62.9251   88.6733   10.1923 H       1  UNL1        0.1188
     10 C          58.7362   89.9315    6.3884 C.2     1  UNL1        0.2451
     11 O          57.2609   90.1096    6.5926 O.2     1  UNL1       -0.2703
     12 N          59.4504   90.7327    5.3405 N.am    1  UNL1       -0.2673
     13 C          58.6893   91.7118    4.4967 C.3     1  UNL1        0.1186
     14 C          59.4035   92.5129    3.4489 C.3     1  UNL1        0.1301
     15 N          60.8789   92.3348    3.2447 N.ar    1  UNL1       -0.2924
     16 C          61.6400   91.3557    4.0884 C.ar    1  UNL1        0.1636
     17 N          63.0774   91.3952    3.6616 N.ar    1  UNL1       -0.1316
     18 N          63.2047   92.3988    2.5541 N.ar    1  UNL1       -0.1249
     19 C          61.8459   92.9796    2.2964 C.ar    1  UNL1        0.2383
     20 C          60.9257   90.5546    5.1363 C.3     1  UNL1        0.1599
     21 C          61.5127   94.0220    1.2706 C.3     1  UNL1        0.4524
     22 F          61.1795   95.0643    0.2447 F       1  UNL1       -0.1632
     23 F          61.8773   93.0623    0.1770 F       1  UNL1       -0.1632
     24 F          61.1481   94.9817    2.3642 F       1  UNL1       -0.1632
     25 C          61.7807   86.0148    9.7633 C.ar    1  UNL1       -0.0163
     26 C          61.5260   85.9400   11.2396 C.ar    1  UNL1        0.0279
     27 C          62.2872   84.9608   12.0833 C.ar    1  UNL1        0.1693
     28 F          62.0325   84.8860   13.5597 F       1  UNL1       -0.2017
     29 C          63.3029   84.0564   11.4507 C.ar    1  UNL1        0.1946
     30 F          64.0641   83.0772   12.2944 F       1  UNL1       -0.1994
     31 C          63.5576   84.1312    9.9744 C.ar    1  UNL1        0.1693
     32 F          64.5734   83.2268    9.3418 F       1  UNL1       -0.2017
     33 C          62.7965   85.1103    9.1307 C.ar    1  UNL1        0.0279
@<TRIPOS>BOND
     1     2     1    1
     2     2     3    1
     3     3     4    1
     4     4    10    1
     5    10    11    2
     6    10    12   am
     7    12    13    1
     8    13    14    1
     9    14    15    1
    10    15    16   ar
    11    16    17   ar
    12    17    18   ar
    13    18    19   ar
    14    19    21    1
    15    21    22    1
    16    21    23    1
    17    21    24    1
    18    16    20    1
    19     4     5    2
    20     5     6    1
    21     6     7    1
    22     7    25    1
    23    25    26   ar
    24    26    27   ar
    25    27    28    1
    26    27    29   ar
    27    29    30    1
    28    29    31   ar
    29    31    32    1
    30    31    33   ar
    31     7     2    1
    32    33    25   ar
    33    20    12    1
    34    19    15   ar
    35     1     8    1
    36     1     9    1
@<TRIPOS>MOLECULE
*****
 33 36 0 0 0
SMALL
GASTEIGER

@<TRIPOS>ATOM
      1 N          60.7764   89.7751   10.1195 N.3     1  UNL1       -0.3217
      2 C          61.5997   89.1250   11.1917 C.3     1  UNL1        0.0597
      3 C          61.9319   89.8808   12.4441 C.3     1  UNL1        0.0464
      4 C          62.7552   89.2307   13.5163 C.2     1  UNL1        0.0285
      5 C          63.2463   87.8249   13.3360 C.2     1  UNL1       -0.0255
      6 C          62.9141   87.0691   12.0837 C.3     1  UNL1        0.0315
      7 C          62.0908   87.7192   11.0115 C.3     1  UNL1        0.0413
      8 H          60.5310   90.7225   10.4067 H       1  UNL1        0.1188
      9 H          59.9249   89.2339    9.9696 H       1  UNL1        0.1188
     10 C          63.0874   89.9864   14.7687 C.2     1  UNL1        0.2451
     11 O          62.1304   89.9817   15.9237 O.2     1  UNL1       -0.2703
     12 N          64.3767   90.7470   14.8661 N.am    1  UNL1       -0.2673
     13 C          64.7089   91.5027   16.1185 C.3     1  UNL1        0.1186
     14 C          65.9981   92.2631   16.2158 C.3     1  UNL1        0.1301
     15 N          66.9552   92.2679   15.0608 N.ar    1  UNL1       -0.2924
     16 C          66.6230   91.5122   13.8084 C.ar    1  UNL1        0.1636
     17 N          67.7537   91.6988   12.8407 N.ar    1  UNL1       -0.1316
     18 N          68.7848   92.5699   13.4950 N.ar    1  UNL1       -0.1249
     19 C          68.2913   92.9217   14.8671 C.ar    1  UNL1        0.2383
     20 C          65.3337   90.7517   13.7111 C.3     1  UNL1        0.1599
     21 C          69.0080   93.7769   15.8695 C.3     1  UNL1        0.4524
     22 F          69.7246   94.6322   16.8719 F       1  UNL1       -0.1632
     23 F          68.3369   94.9958   15.3093 F       1  UNL1       -0.1632
     24 F          69.6791   92.5580   16.4297 F       1  UNL1       -0.1632
     25 C          61.7586   86.9635    9.7591 C.ar    1  UNL1       -0.0163
     26 C          62.7959   86.0969    9.1086 C.ar    1  UNL1        0.0279
     27 C          62.4636   85.3411    7.8562 C.ar    1  UNL1        0.1693
     28 F          63.5008   84.4745    7.2057 F       1  UNL1       -0.2017
     29 C          61.0942   85.4520    7.2543 C.ar    1  UNL1        0.1946
     30 F          60.7620   84.6963    6.0019 F       1  UNL1       -0.1994
     31 C          60.0570   86.3187    7.9047 C.ar    1  UNL1        0.1693
     32 F          58.6876   86.4296    7.3028 F       1  UNL1       -0.2017
     33 C          60.3892   87.0744    9.1571 C.ar    1  UNL1        0.0279
@<TRIPOS>BOND
     1     2     1    1
     2     2     3    1
     3     3     4    1
     4     4    10    1
     5    10    11    2
     6    10    12   am
     7    12    13    1
     8    13    14    1
     9    14    15    1
    10    15    16   ar
    11    16    17   ar
    12    17    18   ar
    13    18    19   ar
    14    19    21    1
    15    21    22    1
    16    21    23    1
    17    21    24    1
    18    16    20    1
    19     4     5    2
    20     5     6    1
    21     6     7    1
    22     7    25    1
    23    25    26   ar
    24    26    27   ar
    25    27    28    1
    26    27    29   ar
    27    29    30    1
    28    29    31   ar
    29    31    32    1
    30    31    33   ar
    31     7     2    1
    32    33    25   ar
    33    20    12    1
    34    19    15   ar
    35     1     8    1
    36     1     9    1
@<TRIPOS>MOLECULE
*****
 33 36 0 0 0
SMALL
GASTEIGER

@<TRIPOS>ATOM
      1 N          60.8427   89.8478   10.0906 N.3     1  UNL1       -0.3217
      2 C          61.6474   89.1928   11.1739 C.3     1  UNL1        0.0597
      3 C          61.9831   89.9531   12.4227 C.3     1  UNL1        0.0464
      4 C          62.7877   89.2981   13.5060 C.2     1  UNL1        0.0285
      5 C          63.2567   87.8829   13.3405 C.2     1  UNL1       -0.0255
      6 C          62.9210   87.1227   12.0917 C.3     1  UNL1        0.0315
      7 C          62.1163   87.7777   11.0084 C.3     1  UNL1        0.0413
      8 H          60.6110   90.8014   10.3685 H       1  UNL1        0.1188
      9 H          59.9834   89.3196    9.9387 H       1  UNL1        0.1188
     10 C          63.1235   90.0582   14.7547 C.2     1  UNL1        0.2451
     11 O          62.1561   90.0826   15.9009 O.2     1  UNL1       -0.2703
     12 N          64.4266   90.7941   14.8573 N.am    1  UNL1       -0.2673
     13 C          64.7623   91.5543   16.1061 C.3     1  UNL1        0.1186
     14 C          66.0653   92.2901   16.2087 C.3     1  UNL1        0.1301
     15 N          67.0326   92.2658   15.0625 N.ar    1  UNL1       -0.2924
     16 C          66.6969   91.5057   13.8138 C.ar    1  UNL1        0.1636
     17 N          67.8399   91.6615   12.8549 N.ar    1  UNL1       -0.1316
     18 N          68.8820   92.5180   13.5110 N.ar    1  UNL1       -0.1249
     19 C          68.3831   92.8915   14.8754 C.ar    1  UNL1        0.2383
     20 C          65.3939   90.7698   13.7112 C.3     1  UNL1        0.1599
     21 C          69.1074   93.7414   15.8769 C.3     1  UNL1        0.4524
     22 F          69.8318   94.5912   16.8784 F       1  UNL1       -0.1632
     23 F          69.8326   92.5291   16.3812 F       1  UNL1       -0.1632
     24 F          68.3822   94.9537   15.3726 F       1  UNL1       -0.1632
     25 C          61.7806   87.0175    9.7597 C.ar    1  UNL1       -0.0163
     26 C          60.4025   87.1077    9.1744 C.ar    1  UNL1        0.0279
     27 C          60.0668   86.3474    7.9256 C.ar    1  UNL1        0.1693
     28 F          58.6886   86.4376    7.3403 F       1  UNL1       -0.2017
     29 C          61.1092   85.4971    7.2621 C.ar    1  UNL1        0.1946
     30 F          60.7735   84.7370    6.0134 F       1  UNL1       -0.1994
     31 C          62.4874   85.4070    7.8474 C.ar    1  UNL1        0.1693
     32 F          63.5298   84.5567    7.1840 F       1  UNL1       -0.2017
     33 C          62.8231   86.1671    9.0962 C.ar    1  UNL1        0.0279
@<TRIPOS>BOND
     1     2     1    1
     2     2     3    1
     3     3     4    1
     4     4    10    1
     5    10    11    2
     6    10    12   am
     7    12    13    1
     8    13    14    1
     9    14    15    1
    10    15    16   ar
    11    16    17   ar
    12    17    18   ar
    13    18    19   ar
    14    19    21    1
    15    21    22    1
    16    21    23    1
    17    21    24    1
    18    16    20    1
    19     4     5    2
    20     5     6    1
    21     6     7    1
    22     7    25    1
    23    25    26   ar
    24    26    27   ar
    25    27    28    1
    26    27    29   ar
    27    29    30    1
    28    29    31   ar
    29    31    32    1
    30    31    33   ar
    31     7     2    1
    32    33    25   ar
    33    20    12    1
    34    19    15   ar
    35     1     8    1
    36     1     9    1
@<TRIPOS>MOLECULE
*****
 33 36 0 0 0
SMALL
GASTEIGER

@<TRIPOS>ATOM
      1 N          63.7376   90.1266   16.9283 N.3     1  UNL1       -0.3217
      2 C          63.8161   89.0369   15.9005 C.3     1  UNL1        0.0597
      3 C          63.2826   87.6704   16.2139 C.3     1  UNL1        0.0464
      4 C          63.3612   86.5807   15.1861 C.2     1  UNL1        0.0285
      5 C          63.9732   86.8576   13.8448 C.2     1  UNL1       -0.0255
      6 C          64.5066   88.2240   13.5315 C.3     1  UNL1        0.0315
      7 C          64.4281   89.3137   14.5593 C.3     1  UNL1        0.0413
      8 H          63.2958   89.7653   17.7737 H       1  UNL1        0.1188
      9 H          63.1855   90.9015   16.5608 H       1  UNL1        0.1188
     10 C          62.8278   85.2143   15.4995 C.2     1  UNL1        0.2451
     11 O          62.2415   84.9297   16.8505 O.2     1  UNL1       -0.2703
     12 N          62.8805   84.1324   14.4618 N.am    1  UNL1       -0.2673
     13 C          62.3471   82.7659   14.7751 C.3     1  UNL1        0.1186
     14 C          62.3999   81.6841   13.7375 C.3     1  UNL1        0.1301
     15 N          62.9862   81.9687   12.3864 N.ar    1  UNL1       -0.2924
     16 C          63.5196   83.3352   12.0731 C.ar    1  UNL1        0.1636
     17 N          64.0353   83.3196   10.6646 N.ar    1  UNL1       -0.1316
     18 N          63.8206   81.9436   10.1075 N.ar    1  UNL1       -0.1249
     19 C          63.1722   81.1086   11.1716 C.ar    1  UNL1        0.2383
     20 C          63.4668   84.4170   13.1107 C.3     1  UNL1        0.1599
     21 C          62.7789   79.6668   11.0435 C.3     1  UNL1        0.4524
     22 F          62.3856   78.2250   10.9153 F       1  UNL1       -0.1632
     23 F          62.8354   79.7843    9.5492 F       1  UNL1       -0.1632
     24 F          62.7225   79.5494   12.5378 F       1  UNL1       -0.1632
     25 C          64.9615   90.6801   14.2459 C.ar    1  UNL1       -0.0163
     26 C          64.7051   91.2953   12.9021 C.ar    1  UNL1        0.0279
     27 C          65.2385   92.6619   12.5888 C.ar    1  UNL1        0.1693
     28 F          64.9821   93.2771   11.2450 F       1  UNL1       -0.2017
     29 C          66.0284   93.4131   13.6192 C.ar    1  UNL1        0.1946
     30 F          66.5618   94.7795   13.3058 F       1  UNL1       -0.1994
     31 C          66.2848   92.7979   14.9630 C.ar    1  UNL1        0.1693
     32 F          67.0746   93.5491   15.9934 F       1  UNL1       -0.2017
     33 C          65.7514   91.4314   15.2764 C.ar    1  UNL1        0.0279
@<TRIPOS>BOND
     1     2     1    1
     2     2     3    1
     3     3     4    1
     4     4    10    1
     5    10    11    2
     6    10    12   am
     7    12    13    1
     8    13    14    1
     9    14    15    1
    10    15    16   ar
    11    16    17   ar
    12    17    18   ar
    13    18    19   ar
    14    19    21    1
    15    21    22    1
    16    21    23    1
    17    21    24    1
    18    16    20    1
    19     4     5    2
    20     5     6    1
    21     6     7    1
    22     7    25    1
    23    25    26   ar
    24    26    27   ar
    25    27    28    1
    26    27    29   ar
    27    29    30    1
    28    29    31   ar
    29    31    32    1
    30    31    33   ar
    31     7     2    1
    32    33    25   ar
    33    20    12    1
    34    19    15   ar
    35     1     8    1
    36     1     9    1
@<TRIPOS>MOLECULE
*****
 33 36 0 0 0
SMALL
GASTEIGER

@<TRIPOS>ATOM
      1 N          63.4205   89.7185   14.9195 N.3     1  UNL1       -0.3217
      2 C          63.3205   90.2473   13.5194 C.3     1  UNL1        0.0597
      3 C          62.1870   89.8192   12.6352 C.3     1  UNL1        0.0464
      4 C          62.0869   90.3479   11.2350 C.2     1  UNL1        0.0285
      5 C          63.1205   91.3049   10.7191 C.2     1  UNL1       -0.0255
      6 C          64.2539   91.7331   11.6034 C.3     1  UNL1        0.0315
      7 C          64.3540   91.2043   13.0035 C.3     1  UNL1        0.0413
      8 H          62.6411   89.0860   15.1006 H       1  UNL1        0.1188
      9 H          63.3882   90.4956   15.5796 H       1  UNL1        0.1188
     10 C          60.9535   89.9198   10.3508 C.2     1  UNL1        0.2451
     11 O          59.6878   90.7240   10.3115 O.2     1  UNL1       -0.2703
     12 N          61.0856   88.6875    9.5058 N.am    1  UNL1       -0.2673
     13 C          59.9521   88.2593    8.6216 C.3     1  UNL1        0.1186
     14 C          60.0843   87.0271    7.7766 C.3     1  UNL1        0.1301
     15 N          61.3499   86.2229    7.8159 N.ar    1  UNL1       -0.2924
     16 C          62.4834   86.6511    8.7001 C.ar    1  UNL1        0.1636
     17 N          63.6011   85.6652    8.5310 N.ar    1  UNL1       -0.1316
     18 N          63.1584   84.6277    7.5422 N.ar    1  UNL1       -0.1249
     19 C          61.7671   84.9724    7.1002 C.ar    1  UNL1        0.2383
     20 C          62.3512   87.8833    9.5451 C.3     1  UNL1        0.1599
     21 C          60.9385   84.2019    6.1155 C.3     1  UNL1        0.4524
     22 F          60.1097   83.4314    5.1309 F       1  UNL1       -0.1632
     23 F          59.6973   84.5665    6.8748 F       1  UNL1       -0.1632
     24 F          62.1797   83.8373    5.3563 F       1  UNL1       -0.1632
     25 C          65.4874   91.6324   13.8877 C.ar    1  UNL1       -0.0163
     26 C          65.2196   92.0390   15.3065 C.ar    1  UNL1        0.0279
     27 C          66.3532   92.4671   16.1907 C.ar    1  UNL1        0.1693
     28 F          66.0853   92.8737   17.6095 F       1  UNL1       -0.2017
     29 C          67.7545   92.4887   15.6562 C.ar    1  UNL1        0.1946
     30 F          68.8879   92.9168   16.5404 F       1  UNL1       -0.1994
     31 C          68.0223   92.0821   14.2374 C.ar    1  UNL1        0.1693
     32 F          69.4236   92.1036   13.7028 F       1  UNL1       -0.2017
     33 C          66.8888   91.6540   13.3532 C.ar    1  UNL1        0.0279
@<TRIPOS>BOND
     1     2     1    1
     2     2     3    1
     3     3     4    1
     4     4    10    1
     5    10    11    2
     6    10    12   am
     7    12    13    1
     8    13    14    1
     9    14    15    1
    10    15    16   ar
    11    16    17   ar
    12    17    18   ar
    13    18    19   ar
    14    19    21    1
    15    21    22    1
    16    21    23    1
    17    21    24    1
    18    16    20    1
    19     4     5    2
    20     5     6    1
    21     6     7    1
    22     7    25    1
    23    25    26   ar
    24    26    27   ar
    25    27    28    1
    26    27    29   ar
    27    29    30    1
    28    29    31   ar
    29    31    32    1
    30    31    33   ar
    31     7     2    1
    32    33    25   ar
    33    20    12    1
    34    19    15   ar
    35     1     8    1
    36     1     9    1
@<TRIPOS>MOLECULE
*****
 33 36 0 0 0
SMALL
GASTEIGER

@<TRIPOS>ATOM
      1 N          65.3508   92.7396   11.0890 N.3     1  UNL1       -0.3217
      2 C          64.3390   91.7695   11.6231 C.3     1  UNL1        0.0597
      3 C          63.1851   91.3413   10.7656 C.3     1  UNL1        0.0464
      4 C          62.1733   90.3712   11.2996 C.2     1  UNL1        0.0285
      5 C          62.3154   89.8294   12.6912 C.2     1  UNL1       -0.0255
      6 C          63.4693   90.2576   13.5486 C.3     1  UNL1        0.0315
      7 C          64.4810   91.2277   13.0145 C.3     1  UNL1        0.0413
      8 H          65.1005   93.0015   10.1355 H       1  UNL1        0.1188
      9 H          66.2732   92.3043   11.0910 H       1  UNL1        0.1188
     10 C          61.0195   89.9429   10.4422 C.2     1  UNL1        0.2451
     11 O          59.7507   90.7430   10.4379 O.2     1  UNL1       -0.2703
     12 N          61.1344   88.7145    9.5891 N.am    1  UNL1       -0.2673
     13 C          59.9805   88.2862    8.7317 C.3     1  UNL1        0.1186
     14 C          60.0954   87.0578    7.8786 C.3     1  UNL1        0.1301
     15 N          61.3642   86.2577    7.8829 N.ar    1  UNL1       -0.2924
     16 C          62.5180   86.6859    8.7403 C.ar    1  UNL1        0.1636
     17 N          63.6343   85.7044    8.5392 N.ar    1  UNL1       -0.1316
     18 N          63.1704   84.6695    7.5575 N.ar    1  UNL1       -0.1249
     19 C          61.7674   85.0114    7.1519 C.ar    1  UNL1        0.2383
     20 C          62.4031   87.9143    9.5934 C.3     1  UNL1        0.1599
     21 C          60.9168   84.2422    6.1850 C.3     1  UNL1        0.4524
     22 F          60.0662   83.4730    5.2182 F       1  UNL1       -0.1632
     23 F          59.6851   84.6795    6.9208 F       1  UNL1       -0.1632
     24 F          62.1487   83.8049    5.4493 F       1  UNL1       -0.1632
     25 C          65.6349   91.6560   13.8719 C.ar    1  UNL1       -0.0163
     26 C          67.0290   91.6343   13.3188 C.ar    1  UNL1        0.0279
     27 C          68.1829   92.0626   14.1762 C.ar    1  UNL1        0.1693
     28 F          69.5770   92.0409   13.6231 F       1  UNL1       -0.2017
     29 C          67.9426   92.5125   15.5868 C.ar    1  UNL1        0.1946
     30 F          69.0965   92.9408   16.4442 F       1  UNL1       -0.1994
     31 C          66.5485   92.5342   16.1400 C.ar    1  UNL1        0.1693
     32 F          66.3082   92.9841   17.5506 F       1  UNL1       -0.2017
     33 C          65.3947   92.1059   15.2826 C.ar    1  UNL1        0.0279
@<TRIPOS>BOND
     1     2     1    1
     2     2     3    1
     3     3     4    1
     4     4    10    1
     5    10    11    2
     6    10    12   am
     7    12    13    1
     8    13    14    1
     9    14    15    1
    10    15    16   ar
    11    16    17   ar
    12    17    18   ar
    13    18    19   ar
    14    19    21    1
    15    21    22    1
    16    21    23    1
    17    21    24    1
    18    16    20    1
    19     4     5    2
    20     5     6    1
    21     6     7    1
    22     7    25    1
    23    25    26   ar
    24    26    27   ar
    25    27    28    1
    26    27    29   ar
    27    29    30    1
    28    29    31   ar
    29    31    32    1
    30    31    33   ar
    31     7     2    1
    32    33    25   ar
    33    20    12    1
    34    19    15   ar
    35     1     8    1
    36     1     9    1
@<TRIPOS>MOLECULE
*****
 33 36 0 0 0
SMALL
GASTEIGER

@<TRIPOS>ATOM
      1 N          71.0080   80.4540   12.3077 N.3     1  UNL1       -0.3217
      2 C          71.8235   79.2006   12.1896 C.3     1  UNL1        0.0597
      3 C          71.9247   78.2593   13.3531 C.3     1  UNL1        0.0464
      4 C          72.7402   77.0059   13.2351 C.2     1  UNL1        0.0285
      5 C          73.4545   76.6938   11.9535 C.2     1  UNL1       -0.0255
      6 C          73.3533   77.6351   10.7900 C.3     1  UNL1        0.0315
      7 C          72.5378   78.8885   10.9081 C.3     1  UNL1        0.0413
      8 H          70.5962   80.5052   13.2394 H       1  UNL1        0.1188
      9 H          70.2658   80.4439   11.6080 H       1  UNL1        0.1188
     10 C          72.8414   76.0646   14.3985 C.2     1  UNL1        0.2451
     11 O          73.3511   76.5579   15.7202 O.2     1  UNL1       -0.2703
     12 N          72.4329   74.6299   14.2403 N.am    1  UNL1       -0.2673
     13 C          72.5341   73.6886   15.4038 C.3     1  UNL1        0.1186
     14 C          72.1256   72.2540   15.2455 C.3     1  UNL1        0.1301
     15 N          71.6159   71.7608   13.9238 N.ar    1  UNL1       -0.2924
     16 C          71.5147   72.7021   12.7604 C.ar    1  UNL1        0.1636
     17 N          70.9793   71.9343   11.5883 N.ar    1  UNL1       -0.1316
     18 N          70.7496   70.5185   12.0273 N.ar    1  UNL1       -0.1249
     19 C          71.1430   70.4112   13.4708 C.ar    1  UNL1        0.2383
     20 C          71.9232   74.1366   12.9186 C.3     1  UNL1        0.1599
     21 C          71.0755   69.1720   14.3133 C.3     1  UNL1        0.4524
     22 F          71.0080   67.9329   15.1558 F       1  UNL1       -0.1632
     23 F          72.4651   69.4359   14.8126 F       1  UNL1       -0.1632
     24 F          69.6859   68.9083   13.8139 F       1  UNL1       -0.1632
     25 C          72.4366   79.8298    9.7446 C.ar    1  UNL1       -0.0163
     26 C          72.2491   79.2904    8.3576 C.ar    1  UNL1        0.0279
     27 C          72.1479   80.2318    7.1941 C.ar    1  UNL1        0.1693
     28 F          71.9604   79.6924    5.8071 F       1  UNL1       -0.2017
     29 C          72.2342   81.7125    7.4177 C.ar    1  UNL1        0.1946
     30 F          72.1329   82.6538    6.2542 F       1  UNL1       -0.1994
     31 C          72.4217   82.2519    8.8047 C.ar    1  UNL1        0.1693
     32 F          72.5079   83.7326    9.0283 F       1  UNL1       -0.2017
     33 C          72.5229   81.3106    9.9682 C.ar    1  UNL1        0.0279
@<TRIPOS>BOND
     1     2     1    1
     2     2     3    1
     3     3     4    1
     4     4    10    1
     5    10    11    2
     6    10    12   am
     7    12    13    1
     8    13    14    1
     9    14    15    1
    10    15    16   ar
    11    16    17   ar
    12    17    18   ar
    13    18    19   ar
    14    19    21    1
    15    21    22    1
    16    21    23    1
    17    21    24    1
    18    16    20    1
    19     4     5    2
    20     5     6    1
    21     6     7    1
    22     7    25    1
    23    25    26   ar
    24    26    27   ar
    25    27    28    1
    26    27    29   ar
    27    29    30    1
    28    29    31   ar
    29    31    32    1
    30    31    33   ar
    31     7     2    1
    32    33    25   ar
    33    20    12    1
    34    19    15   ar
    35     1     8    1
    36     1     9    1
