@<TRIPOS>MOLECULE
*****
 25 28 0 0 0
SMALL
GASTEIGER

@<TRIPOS>ATOM
      1 C          62.6019   89.7359   10.8284 C.ar    1  UNL1        0.0768
      2 C          62.4706   88.3752   11.4457 C.ar    1  UNL1        0.0332
      3 C          61.4936   87.3866   10.8814 C.ar    1  UNL1        0.0527
      4 C          60.6480   87.7590    9.6998 C.ar    1  UNL1        0.0489
      5 C          59.6066   87.0001    8.9319 C.ar    1  UNL1        0.0249
      6 C          59.0943   87.8919    7.8400 C.ar    1  UNL1        0.1006
      7 N          59.8190   89.2019    7.9331 N.ar    1  UNL1       -0.2269
      8 C          60.7792   89.1198    9.0825 C.ar    1  UNL1        0.1418
      9 N          61.7562   90.1082    9.6468 N.ar    1  UNL1       -0.3373
     10 H          61.8423   91.0014    9.2417 H       1  UNL1        0.1674
     11 C          65.3968   91.5181   14.8299 C.3     1  UNL1        0.0521
     12 C          64.9763   91.6156   13.3935 C.ar    1  UNL1        0.0594
     13 C          65.5327   92.7016   12.5212 C.ar    1  UNL1        0.0147
     14 C          65.1121   92.7991   11.0846 C.ar    1  UNL1        0.0028
     15 C          64.1352   91.8105   10.5204 C.ar    1  UNL1        0.0206
     16 C          63.5788   90.7245   11.3927 C.ar    1  UNL1        0.0965
     17 N          63.9993   90.6270   12.8292 N.ar    1  UNL1       -0.2482
     18 N          61.3624   86.0258   11.4987 N.pl3   1  UNL1       -0.3123
     19 H          60.5506   85.7904   12.0033 H       1  UNL1        0.1522
     20 C          62.4682   85.0238   11.3472 C.ar    1  UNL1        0.0514
     21 C          63.1482   84.4676   12.5631 C.ar    1  UNL1        0.0353
     22 C          64.2540   83.4655   12.4116 C.ar    1  UNL1        0.1002
     23 N          64.6798   83.0195   11.0442 N.ar    1  UNL1       -0.2422
     24 C          63.9999   83.5756    9.8283 C.ar    1  UNL1        0.1002
     25 C          62.8941   84.5778    9.9798 C.ar    1  UNL1        0.0353
@<TRIPOS>BOND
     1    11    12    1
     2    12    13   ar
     3    13    14   ar
     4    14    15   ar
     5    15    16   ar
     6    16     1    1
     7     1     2   ar
     8     2     3   ar
     9     3    18    1
    10    18    20    1
    11    20    21   ar
    12    21    22   ar
    13    22    23   ar
    14    23    24   ar
    15    24    25   ar
    16     3     4   ar
    17     4     5   ar
    18     5     6   ar
    19     6     7   ar
    20     7     8   ar
    21     8     9   ar
    22    16    17   ar
    23    17    12   ar
    24     9     1   ar
    25    25    20   ar
    26     8     4    1
    27    18    19    1
    28     9    10    1
@<TRIPOS>MOLECULE
*****
 25 28 0 0 0
SMALL
GASTEIGER

@<TRIPOS>ATOM
      1 C          61.8722   88.0670   10.7562 C.ar    1  UNL1        0.0768
      2 C          62.1871   89.4885   11.1167 C.ar    1  UNL1        0.0332
      3 C          63.0134   89.7887   12.3322 C.ar    1  UNL1        0.0527
      4 C          63.5248   88.6672   13.1870 C.ar    1  UNL1        0.0489
      5 C          64.3567   88.6555   14.4351 C.ar    1  UNL1        0.0249
      6 C          64.5559   87.2267   14.8460 C.ar    1  UNL1        0.1006
      7 N          63.8472   86.3554   13.8517 N.ar    1  UNL1       -0.2269
      8 C          63.2099   87.2456   12.8264 C.ar    1  UNL1        0.1418
      9 N          62.3836   86.9456   11.6110 N.ar    1  UNL1       -0.3373
     10 H          62.1769   86.0125   11.3744 H       1  UNL1        0.1674
     11 C          59.0979   89.7119    6.6822 C.3     1  UNL1        0.0521
     12 C          59.6587   88.5893    7.5038 C.ar    1  UNL1        0.0594
     13 C          59.3932   87.1664    7.1101 C.ar    1  UNL1        0.0147
     14 C          59.9541   86.0438    7.9318 C.ar    1  UNL1        0.0028
     15 C          60.7804   86.3440    9.1472 C.ar    1  UNL1        0.0206
     16 C          61.0458   87.7669    9.5408 C.ar    1  UNL1        0.0965
     17 N          60.4851   88.8895    8.7192 N.ar    1  UNL1       -0.2482
     18 N          63.3283   91.2103   12.6926 N.pl3   1  UNL1       -0.3123
     19 H          62.6513   91.7655   13.1429 H       1  UNL1        0.1522
     20 C          64.6745   91.7861   12.3671 C.ar    1  UNL1        0.0514
     21 C          65.7123   91.9209   13.4417 C.ar    1  UNL1        0.0353
     22 C          67.0586   92.4966   13.1162 C.ar    1  UNL1        0.1002
     23 N          67.3671   92.9375   11.7161 N.ar    1  UNL1       -0.2422
     24 C          66.3294   92.8027   10.6414 C.ar    1  UNL1        0.1002
     25 C          64.9831   92.2270   10.9669 C.ar    1  UNL1        0.0353
@<TRIPOS>BOND
     1    11    12    1
     2    12    13   ar
     3    13    14   ar
     4    14    15   ar
     5    15    16   ar
     6    16     1    1
     7     1     2   ar
     8     2     3   ar
     9     3    18    1
    10    18    20    1
    11    20    21   ar
    12    21    22   ar
    13    22    23   ar
    14    23    24   ar
    15    24    25   ar
    16     3     4   ar
    17     4     5   ar
    18     5     6   ar
    19     6     7   ar
    20     7     8   ar
    21     8     9   ar
    22    16    17   ar
    23    17    12   ar
    24     9     1   ar
    25    25    20   ar
    26     8     4    1
    27    18    19    1
    28     9    10    1
@<TRIPOS>MOLECULE
*****
 25 28 0 0 0
SMALL
GASTEIGER

@<TRIPOS>ATOM
      1 C          62.7987   89.7307   11.0230 C.ar    1  UNL1        0.0768
      2 C          63.0738   89.5268   12.4833 C.ar    1  UNL1        0.0332
      3 C          63.9919   90.4633   13.2116 C.ar    1  UNL1        0.0527
      4 C          64.6348   91.6037   12.4794 C.ar    1  UNL1        0.0489
      5 C          65.5769   92.6810   12.9285 C.ar    1  UNL1        0.0249
      6 C          65.8841   93.5508   11.7457 C.ar    1  UNL1        0.1006
      7 N          65.1318   93.0110   10.5655 N.ar    1  UNL1       -0.2269
      8 C          64.3597   91.8076   11.0190 C.ar    1  UNL1        0.1418
      9 N          63.4417   90.8711   10.2908 N.ar    1  UNL1       -0.3373
     10 H          63.2611   91.0050    9.3323 H       1  UNL1        0.1674
     11 C          59.2255   88.8843    7.3467 C.3     1  UNL1        0.0521
     12 C          60.0941   88.3711    8.4566 C.ar    1  UNL1        0.0594
     13 C          60.0447   86.9213    8.8384 C.ar    1  UNL1        0.0147
     14 C          60.9133   86.4080    9.9484 C.ar    1  UNL1        0.0028
     15 C          61.8313   87.3445   10.6766 C.ar    1  UNL1        0.0206
     16 C          61.8807   88.7943   10.2948 C.ar    1  UNL1        0.0965
     17 N          61.0121   89.3075    9.1849 N.ar    1  UNL1       -0.2482
     18 N          64.2669   90.2593   14.6720 N.pl3   1  UNL1       -0.3123
     19 H          64.6557   90.9891   15.2064 H       1  UNL1        0.1522
     20 C          63.9496   88.9434   15.3183 C.ar    1  UNL1        0.0514
     21 C          64.4345   87.6668   14.6977 C.ar    1  UNL1        0.0353
     22 C          64.1172   86.3509   15.3439 C.ar    1  UNL1        0.1002
     23 N          63.3151   86.3115   16.6108 N.ar    1  UNL1       -0.2422
     24 C          62.8302   87.5881   17.2314 C.ar    1  UNL1        0.1002
     25 C          63.1475   88.9041   16.5852 C.ar    1  UNL1        0.0353
@<TRIPOS>BOND
     1    11    12    1
     2    12    13   ar
     3    13    14   ar
     4    14    15   ar
     5    15    16   ar
     6    16     1    1
     7     1     2   ar
     8     2     3   ar
     9     3    18    1
    10    18    20    1
    11    20    21   ar
    12    21    22   ar
    13    22    23   ar
    14    23    24   ar
    15    24    25   ar
    16     3     4   ar
    17     4     5   ar
    18     5     6   ar
    19     6     7   ar
    20     7     8   ar
    21     8     9   ar
    22    16    17   ar
    23    17    12   ar
    24     9     1   ar
    25    25    20   ar
    26     8     4    1
    27    18    19    1
    28     9    10    1
@<TRIPOS>MOLECULE
*****
 25 28 0 0 0
SMALL
GASTEIGER

@<TRIPOS>ATOM
      1 C          62.1698   85.9271   10.6676 C.ar    1  UNL1        0.0768
      2 C          62.1693   87.2357   11.4007 C.ar    1  UNL1        0.0332
      3 C          61.4333   88.4131   10.8331 C.ar    1  UNL1        0.0527
      4 C          60.6977   88.2818    9.5325 C.ar    1  UNL1        0.0489
      5 C          59.8895   89.2606    8.7333 C.ar    1  UNL1        0.0249
      6 C          59.3905   88.5568    7.5062 C.ar    1  UNL1        0.1006
      7 N          59.8903   87.1431    7.5470 N.ar    1  UNL1       -0.2269
      8 C          60.6982   86.9731    8.7994 C.ar    1  UNL1        0.1418
      9 N          61.4342   85.7958    9.3669 N.ar    1  UNL1       -0.3373
     10 H          61.4345   84.9369    8.8858 H       1  UNL1        0.1674
     11 C          63.7394   83.1532   14.7714 C.3     1  UNL1        0.0521
     12 C          63.6906   83.3627   13.2870 C.ar    1  UNL1        0.0594
     13 C          64.3779   82.3949   12.3700 C.ar    1  UNL1        0.0147
     14 C          64.3291   82.6045   10.8855 C.ar    1  UNL1        0.0028
     15 C          63.5931   83.7819   10.3181 C.ar    1  UNL1        0.0206
     16 C          62.9058   84.7497   11.2351 C.ar    1  UNL1        0.0965
     17 N          62.9546   84.5401   12.7195 N.ar    1  UNL1       -0.2482
     18 N          61.4328   89.7217   11.5663 N.pl3   1  UNL1       -0.3123
     19 H          60.6008   90.0597   11.9698 H       1  UNL1        0.1522
     20 C          62.7001   90.5155   11.6847 C.ar    1  UNL1        0.0514
     21 C          63.2540   91.2271   10.4861 C.ar    1  UNL1        0.0353
     22 C          64.5213   92.0208   10.6044 C.ar    1  UNL1        0.1002
     23 N          65.2345   92.1030   11.9214 N.ar    1  UNL1       -0.2422
     24 C          64.6806   91.3914   13.1201 C.ar    1  UNL1        0.1002
     25 C          63.4133   90.5977   13.0017 C.ar    1  UNL1        0.0353
@<TRIPOS>BOND
     1    11    12    1
     2    12    13   ar
     3    13    14   ar
     4    14    15   ar
     5    15    16   ar
     6    16     1    1
     7     1     2   ar
     8     2     3   ar
     9     3    18    1
    10    18    20    1
    11    20    21   ar
    12    21    22   ar
    13    22    23   ar
    14    23    24   ar
    15    24    25   ar
    16     3     4   ar
    17     4     5   ar
    18     5     6   ar
    19     6     7   ar
    20     7     8   ar
    21     8     9   ar
    22    16    17   ar
    23    17    12   ar
    24     9     1   ar
    25    25    20   ar
    26     8     4    1
    27    18    19    1
    28     9    10    1
@<TRIPOS>MOLECULE
*****
 25 28 0 0 0
SMALL
GASTEIGER

@<TRIPOS>ATOM
      1 C          64.7957   92.1866   11.0067 C.ar    1  UNL1        0.0768
      2 C          64.7133   91.9482   12.4853 C.ar    1  UNL1        0.0332
      3 C          63.5863   91.1368   13.0526 C.ar    1  UNL1        0.0527
      4 C          62.5418   90.5639   12.1411 C.ar    1  UNL1        0.0489
      5 C          61.3240   89.7302   12.4090 C.ar    1  UNL1        0.0249
      6 C          60.6538   89.4533   11.0960 C.ar    1  UNL1        0.1006
      7 N          61.4574   90.1159   10.0165 N.ar    1  UNL1       -0.2269
      8 C          62.6243   90.8023   10.6625 C.ar    1  UNL1        0.1418
      9 N          63.7512   91.6137   10.0953 N.ar    1  UNL1       -0.3373
     10 H          63.8053   91.7702    9.1248 H       1  UNL1        0.1674
     11 C          66.8465   96.8008    9.7807 C.3     1  UNL1        0.0521
     12 C          66.9481   95.3051    9.8264 C.ar    1  UNL1        0.0594
     13 C          68.1766   94.6205    9.3049 C.ar    1  UNL1        0.0147
     14 C          68.2782   93.1246    9.3507 C.ar    1  UNL1        0.0028
     15 C          67.1513   92.3133    9.9179 C.ar    1  UNL1        0.0206
     16 C          65.9227   92.9979   10.4395 C.ar    1  UNL1        0.0965
     17 N          65.8211   94.4937   10.3937 N.ar    1  UNL1       -0.2482
     18 N          63.5039   90.8985   14.5312 N.pl3   1  UNL1       -0.3123
     19 H          63.3948   91.6588   15.1471 H       1  UNL1        0.1522
     20 C          63.5878   89.5017   15.0716 C.ar    1  UNL1        0.0514
     21 C          62.9762   89.1741   16.4015 C.ar    1  UNL1        0.0353
     22 C          63.0600   87.7774   16.9419 C.ar    1  UNL1        0.1002
     23 N          63.7554   86.7082   16.1524 N.ar    1  UNL1       -0.2422
     24 C          64.3670   87.0358   14.8225 C.ar    1  UNL1        0.1002
     25 C          64.2832   88.4326   14.2821 C.ar    1  UNL1        0.0353
@<TRIPOS>BOND
     1    11    12    1
     2    12    13   ar
     3    13    14   ar
     4    14    15   ar
     5    15    16   ar
     6    16     1    1
     7     1     2   ar
     8     2     3   ar
     9     3    18    1
    10    18    20    1
    11    20    21   ar
    12    21    22   ar
    13    22    23   ar
    14    23    24   ar
    15    24    25   ar
    16     3     4   ar
    17     4     5   ar
    18     5     6   ar
    19     6     7   ar
    20     7     8   ar
    21     8     9   ar
    22    16    17   ar
    23    17    12   ar
    24     9     1   ar
    25    25    20   ar
    26     8     4    1
    27    18    19    1
    28     9    10    1
@<TRIPOS>MOLECULE
*****
 25 28 0 0 0
SMALL
GASTEIGER

@<TRIPOS>ATOM
      1 C          62.1588   87.5709   10.9071 C.ar    1  UNL1        0.0768
      2 C          62.6683   86.5952   11.9260 C.ar    1  UNL1        0.0332
      3 C          63.4419   87.0864   13.1136 C.ar    1  UNL1        0.0527
      4 C          63.7060   88.5533   13.2821 C.ar    1  UNL1        0.0489
      5 C          64.4332   89.3270   14.3416 C.ar    1  UNL1        0.0249
      6 C          64.3731   90.7809   13.9774 C.ar    1  UNL1        0.1006
      7 N          63.6087   90.9057   12.6928 N.ar    1  UNL1       -0.2269
      8 C          63.1964   89.5290   12.2631 C.ar    1  UNL1        0.1418
      9 N          62.4228   89.0378   11.0756 N.ar    1  UNL1       -0.3373
     10 H          62.0884   89.6781   10.4068 H       1  UNL1        0.1674
     11 C          61.8879   84.6907    6.5907 C.3     1  UNL1        0.0521
     12 C          61.2497   85.6396    7.5613 C.ar    1  UNL1        0.0594
     13 C          59.8378   86.0974    7.3445 C.ar    1  UNL1        0.0147
     14 C          59.1996   87.0463    8.3152 C.ar    1  UNL1        0.0028
     15 C          59.9733   87.5374    9.5027 C.ar    1  UNL1        0.0206
     16 C          61.3851   87.0796    9.7195 C.ar    1  UNL1        0.0965
     17 N          62.0233   86.1308    8.7489 N.ar    1  UNL1       -0.2482
     18 N          63.9515   86.1107   14.1326 N.pl3   1  UNL1       -0.3123
     19 H          64.4774   86.4308   14.9008 H       1  UNL1        0.1522
     20 C          63.6597   84.6472   13.9812 C.ar    1  UNL1        0.0514
     21 C          64.5128   83.8014   13.0829 C.ar    1  UNL1        0.0353
     22 C          64.2210   82.3379   12.9314 C.ar    1  UNL1        0.1002
     23 N          63.0762   81.7201   13.6782 N.ar    1  UNL1       -0.2422
     24 C          62.2230   82.5659   14.5764 C.ar    1  UNL1        0.1002
     25 C          62.5148   84.0294   14.7280 C.ar    1  UNL1        0.0353
@<TRIPOS>BOND
     1    11    12    1
     2    12    13   ar
     3    13    14   ar
     4    14    15   ar
     5    15    16   ar
     6    16     1    1
     7     1     2   ar
     8     2     3   ar
     9     3    18    1
    10    18    20    1
    11    20    21   ar
    12    21    22   ar
    13    22    23   ar
    14    23    24   ar
    15    24    25   ar
    16     3     4   ar
    17     4     5   ar
    18     5     6   ar
    19     6     7   ar
    20     7     8   ar
    21     8     9   ar
    22    16    17   ar
    23    17    12   ar
    24     9     1   ar
    25    25    20   ar
    26     8     4    1
    27    18    19    1
    28     9    10    1
@<TRIPOS>MOLECULE
*****
 25 28 0 0 0
SMALL
GASTEIGER

@<TRIPOS>ATOM
      1 C          62.1275   85.4651   11.3761 C.ar    1  UNL1        0.0768
      2 C          62.9509   85.9709   12.5232 C.ar    1  UNL1        0.0332
      3 C          63.6681   85.0022   13.4163 C.ar    1  UNL1        0.0527
      4 C          63.5617   83.5277   13.1621 C.ar    1  UNL1        0.0489
      5 C          64.1515   82.3426   13.8673 C.ar    1  UNL1        0.0249
      6 C          63.6925   81.1043   13.1560 C.ar    1  UNL1        0.1006
      7 N          62.8190   81.5242   12.0111 N.ar    1  UNL1       -0.2269
      8 C          62.7381   83.0220   12.0149 C.ar    1  UNL1        0.1418
      9 N          62.0211   83.9907   11.1219 N.ar    1  UNL1       -0.3373
     10 H          61.4806   83.6587   10.3690 H       1  UNL1        0.1674
     11 C          60.0332   90.1543   10.5853 C.3     1  UNL1        0.0521
     12 C          60.3632   88.7784   10.0877 C.ar    1  UNL1        0.0594
     13 C          59.9761   88.3710    8.6969 C.ar    1  UNL1        0.0147
     14 C          60.3061   86.9950    8.1993 C.ar    1  UNL1        0.0028
     15 C          61.0233   86.0264    9.0923 C.ar    1  UNL1        0.0206
     16 C          61.4103   86.4338   10.4831 C.ar    1  UNL1        0.0965
     17 N          61.0804   87.8097   10.9807 N.ar    1  UNL1       -0.2482
     18 N          64.4916   85.5081   14.5635 N.pl3   1  UNL1       -0.3123
     19 H          65.3203   85.0415   14.8180 H       1  UNL1        0.1522
     20 C          64.0525   86.7248   15.3228 C.ar    1  UNL1        0.0514
     21 C          63.3473   86.5739   16.6381 C.ar    1  UNL1        0.0353
     22 C          62.9081   87.7905   17.3976 C.ar    1  UNL1        0.1002
     23 N          63.1741   89.1581   16.8418 N.ar    1  UNL1       -0.2422
     24 C          63.8793   89.3090   15.5265 C.ar    1  UNL1        0.1002
     25 C          64.3185   88.0924   14.7670 C.ar    1  UNL1        0.0353
@<TRIPOS>BOND
     1    11    12    1
     2    12    13   ar
     3    13    14   ar
     4    14    15   ar
     5    15    16   ar
     6    16     1    1
     7     1     2   ar
     8     2     3   ar
     9     3    18    1
    10    18    20    1
    11    20    21   ar
    12    21    22   ar
    13    22    23   ar
    14    23    24   ar
    15    24    25   ar
    16     3     4   ar
    17     4     5   ar
    18     5     6   ar
    19     6     7   ar
    20     7     8   ar
    21     8     9   ar
    22    16    17   ar
    23    17    12   ar
    24     9     1   ar
    25    25    20   ar
    26     8     4    1
    27    18    19    1
    28     9    10    1
@<TRIPOS>MOLECULE
*****
 25 28 0 0 0
SMALL
GASTEIGER

@<TRIPOS>ATOM
      1 C          62.2331   88.0959   11.0943 C.ar    1  UNL1        0.0768
      2 C          62.7440   87.0575   12.0486 C.ar    1  UNL1        0.0332
      3 C          63.5576   87.4690   13.2397 C.ar    1  UNL1        0.0527
      4 C          63.8603   88.9190   13.4765 C.ar    1  UNL1        0.0489
      5 C          64.6311   89.6202   14.5554 C.ar    1  UNL1        0.0249
      6 C          64.5966   91.0919   14.2679 C.ar    1  UNL1        0.1006
      7 N          63.8044   91.3004   13.0113 N.ar    1  UNL1       -0.2269
      8 C          63.3493   89.9574   12.5222 C.ar    1  UNL1        0.1418
      9 N          62.5358   89.5458   11.3311 N.ar    1  UNL1       -0.3373
     10 H          62.2004   90.2273   10.7047 H       1  UNL1        0.1674
     11 C          59.2163   89.3512    7.0541 C.3     1  UNL1        0.0521
     12 C          59.9111   88.3121    7.8831 C.ar    1  UNL1        0.0594
     13 C          59.7923   86.8613    7.5210 C.ar    1  UNL1        0.0147
     14 C          60.4871   85.8221    8.3500 C.ar    1  UNL1        0.0028
     15 C          61.3007   86.2336    9.5411 C.ar    1  UNL1        0.0206
     16 C          61.4195   87.6844    9.9032 C.ar    1  UNL1        0.0965
     17 N          60.7247   88.7236    9.0742 N.ar    1  UNL1       -0.2482
     18 N          64.0685   86.4306   14.1940 N.pl3   1  UNL1       -0.3123
     19 H          64.6465   86.6948   14.9459 H       1  UNL1        0.1522
     20 C          63.6988   84.9895   14.0027 C.ar    1  UNL1        0.0514
     21 C          62.5802   84.3898   14.8022 C.ar    1  UNL1        0.0353
     22 C          62.2104   82.9488   14.6110 C.ar    1  UNL1        0.1002
     23 N          62.9591   82.1074   13.6202 N.ar    1  UNL1       -0.2422
     24 C          64.0776   82.7072   12.8207 C.ar    1  UNL1        0.1002
     25 C          64.4475   84.1482   13.0120 C.ar    1  UNL1        0.0353
@<TRIPOS>BOND
     1    11    12    1
     2    12    13   ar
     3    13    14   ar
     4    14    15   ar
     5    15    16   ar
     6    16     1    1
     7     1     2   ar
     8     2     3   ar
     9     3    18    1
    10    18    20    1
    11    20    21   ar
    12    21    22   ar
    13    22    23   ar
    14    23    24   ar
    15    24    25   ar
    16     3     4   ar
    17     4     5   ar
    18     5     6   ar
    19     6     7   ar
    20     7     8   ar
    21     8     9   ar
    22    16    17   ar
    23    17    12   ar
    24     9     1   ar
    25    25    20   ar
    26     8     4    1
    27    18    19    1
    28     9    10    1
@<TRIPOS>MOLECULE
*****
 25 28 0 0 0
SMALL
GASTEIGER

@<TRIPOS>ATOM
      1 C          62.2273   86.2268   11.4404 C.ar    1  UNL1        0.0768
      2 C          63.0362   86.8474   12.5405 C.ar    1  UNL1        0.0332
      3 C          63.7453   85.9753   13.5338 C.ar    1  UNL1        0.0527
      4 C          63.6453   84.4825   13.4270 C.ar    1  UNL1        0.0489
      5 C          64.2297   83.3757   14.2537 C.ar    1  UNL1        0.0249
      6 C          63.7819   82.0710   13.6645 C.ar    1  UNL1        0.1006
      7 N          62.9207   82.3714   12.4737 N.ar    1  UNL1       -0.2269
      8 C          62.8363   83.8618   12.3269 C.ar    1  UNL1        0.1418
      9 N          62.1273   84.7339   11.3336 N.ar    1  UNL1       -0.3373
     10 H          61.5963   84.3266   10.6115 H       1  UNL1        0.1674
     11 C          58.9120   86.7540    7.4742 C.3     1  UNL1        0.0521
     12 C          59.8606   87.3625    8.4639 C.ar    1  UNL1        0.0594
     13 C          60.1003   88.8432    8.4604 C.ar    1  UNL1        0.0147
     14 C          61.0489   89.4518    9.4502 C.ar    1  UNL1        0.0028
     15 C          61.7579   88.5796   10.4435 C.ar    1  UNL1        0.0206
     16 C          61.5182   87.0989   10.4470 C.ar    1  UNL1        0.0965
     17 N          60.5696   86.4904    9.4573 N.ar    1  UNL1       -0.2482
     18 N          64.5543   86.5961   14.6340 N.pl3   1  UNL1       -0.3123
     19 H          65.3321   86.1184   15.0027 H       1  UNL1        0.1522
     20 C          64.1781   87.9447   15.1723 C.ar    1  UNL1        0.0514
     21 C          64.6233   89.1873   14.4598 C.ar    1  UNL1        0.0353
     22 C          64.2471   90.5360   14.9981 C.ar    1  UNL1        0.1002
     23 N          63.4257   90.6419   16.2487 N.ar    1  UNL1       -0.2422
     24 C          62.9805   89.3992   16.9611 C.ar    1  UNL1        0.1002
     25 C          63.3567   88.0506   16.4229 C.ar    1  UNL1        0.0353
@<TRIPOS>BOND
     1    11    12    1
     2    12    13   ar
     3    13    14   ar
     4    14    15   ar
     5    15    16   ar
     6    16     1    1
     7     1     2   ar
     8     2     3   ar
     9     3    18    1
    10    18    20    1
    11    20    21   ar
    12    21    22   ar
    13    22    23   ar
    14    23    24   ar
    15    24    25   ar
    16     3     4   ar
    17     4     5   ar
    18     5     6   ar
    19     6     7   ar
    20     7     8   ar
    21     8     9   ar
    22    16    17   ar
    23    17    12   ar
    24     9     1   ar
    25    25    20   ar
    26     8     4    1
    27    18    19    1
    28     9    10    1
