@<TRIPOS>MOLECULE
*****
 38 41 0 0 0
SMALL
GASTEIGER

@<TRIPOS>ATOM
      1 C          64.4942   91.2531   13.5703 C.3     1  UNL1        0.0725
      2 C          64.3042   89.8087   13.2130 C.3     1  UNL1        0.0239
      3 C          63.9389   88.8150   14.2757 C.3     1  UNL1        0.0237
      4 C          63.7637   89.2657   15.6956 C.2     1  UNL1       -0.0441
      5 C          63.3985   88.2720   16.7581 C.2     1  UNL1       -0.0084
      6 C          63.9538   90.7101   16.0529 C.3     1  UNL1        0.0237
      7 C          64.3190   91.7038   14.9903 C.3     1  UNL1        0.0239
      8 C          63.2085   86.8276   16.4008 C.ar    1  UNL1        0.0024
      9 C          62.3609   85.9455   17.2688 C.ar    1  UNL1        0.0002
     10 C          62.1708   84.5012   16.9115 C.ar    1  UNL1        0.0031
     11 C          62.8284   83.9389   15.6862 C.ar    1  UNL1        0.0376
     12 C          63.6760   84.8210   14.8181 C.ar    1  UNL1        0.1472
     13 C          63.8661   86.2653   15.1754 C.ar    1  UNL1        0.0375
     14 O          64.3336   84.2587   13.5928 O.3     1  UNL1       -0.4361
     15 C          63.7446   84.5205   12.2384 C.ar    1  UNL1        0.2297
     16 C          64.1796   83.7007   11.0601 C.ar    1  UNL1        0.0581
     17 C          63.5906   83.9625    9.7057 C.ar    1  UNL1        0.0102
     18 C          62.5664   85.0442    9.5296 C.ar    1  UNL1        0.0907
     19 C          62.1313   85.8640   10.7079 C.ar    1  UNL1        0.1059
     20 N          62.7204   85.6022   12.0623 N.ar    1  UNL1       -0.2099
     21 C          61.9774   85.3060    8.1751 C.3     1  UNL1        0.4200
     22 F          61.3883   85.5678    6.8207 F       1  UNL1       -0.1658
     23 F          63.1578   84.6396    7.5329 F       1  UNL1       -0.1658
     24 F          60.7969   85.9725    8.8174 F       1  UNL1       -0.1658
     25 C          66.3013   92.5598   12.2373 C.2     1  UNL1        0.2473
     26 O          67.3779   91.8792   13.0295 O.2     1  UNL1       -0.2701
     27 N          64.8594   92.2468   12.5078 N.am    1  UNL1       -0.3024
     28 H          64.1528   92.6936   11.9878 H       1  UNL1        0.1497
     29 C          65.2072   96.8557    9.5265 C.3     1  UNL1        0.0339
     30 C          66.1194   95.7015    9.8193 C.ar    1  UNL1        0.0095
     31 C          65.7542   94.7078   10.8819 C.ar    1  UNL1        0.0046
     32 C          66.6665   93.5536   11.1747 C.ar    1  UNL1        0.0723
     33 C          67.9438   93.3932   10.4049 C.ar    1  UNL1        0.1047
     34 N          68.3089   94.3869    9.3423 N.ar    1  UNL1       -0.2298
     35 C          67.3967   95.5411    9.0495 C.ar    1  UNL1        0.1213
     36 N          67.7619   96.5349    7.9869 N.pl3   1  UNL1       -0.3429
     37 H          68.6003   96.4295    7.4816 H       1  UNL1        0.1437
     38 H          67.1632   97.2924    7.7947 H       1  UNL1        0.1437
@<TRIPOS>BOND
     1    29    30    1
     2    30    31   ar
     3    31    32   ar
     4    32    25    1
     5    25    26    2
     6    25    27   am
     7    27     1    1
     8     1     2    1
     9     2     3    1
    10     3     4    1
    11     4     5    2
    12     5     8    1
    13     8     9   ar
    14     9    10   ar
    15    10    11   ar
    16    11    12   ar
    17    12    14    1
    18    14    15    1
    19    15    16   ar
    20    16    17   ar
    21    17    18   ar
    22    18    21    1
    23    21    22    1
    24    21    23    1
    25    21    24    1
    26    18    19   ar
    27    19    20   ar
    28    12    13   ar
    29     4     6    1
    30     6     7    1
    31    32    33   ar
    32    33    34   ar
    33    34    35   ar
    34    35    36    1
    35    35    30   ar
    36     7     1    1
    37    13     8   ar
    38    20    15   ar
    39    27    28    1
    40    36    37    1
    41    36    38    1
@<TRIPOS>MOLECULE
*****
 38 41 0 0 0
SMALL
GASTEIGER

@<TRIPOS>ATOM
      1 C          64.4788   91.4527   13.5762 C.3     1  UNL1        0.0725
      2 C          64.2451   90.0057   13.2573 C.3     1  UNL1        0.0239
      3 C          63.8720   89.0478   14.3497 C.3     1  UNL1        0.0237
      4 C          63.7325   89.5368   15.7608 C.2     1  UNL1       -0.0441
      5 C          63.3593   88.5788   16.8530 C.2     1  UNL1       -0.0084
      6 C          63.9661   90.9838   16.0797 C.3     1  UNL1        0.0237
      7 C          64.3392   91.9417   14.9874 C.3     1  UNL1        0.0239
      8 C          63.1257   87.1318   16.5341 C.ar    1  UNL1        0.0024
      9 C          61.9255   86.4254   17.0912 C.ar    1  UNL1        0.0002
     10 C          61.6919   84.9784   16.7723 C.ar    1  UNL1        0.0031
     11 C          62.6585   84.2379   15.8963 C.ar    1  UNL1        0.0376
     12 C          63.8588   84.9444   15.3392 C.ar    1  UNL1        0.1472
     13 C          64.0924   86.3914   15.6581 C.ar    1  UNL1        0.0375
     14 O          64.8254   84.2039   14.4633 O.3     1  UNL1       -0.4361
     15 C          64.3275   83.1453   13.5245 C.ar    1  UNL1        0.2297
     16 C          64.3892   83.3678   12.0424 C.ar    1  UNL1        0.0581
     17 C          63.8913   82.3091   11.1036 C.ar    1  UNL1        0.0102
     18 C          63.3316   81.0279   11.6469 C.ar    1  UNL1        0.0907
     19 C          63.2699   80.8054   13.1290 C.ar    1  UNL1        0.1059
     20 N          63.7678   81.8640   14.0677 N.ar    1  UNL1       -0.2099
     21 C          62.8337   79.9693   10.7081 C.3     1  UNL1        0.4200
     22 F          62.3358   78.9106    9.7693 F       1  UNL1       -0.1658
     23 F          62.4998   79.0901   11.8766 F       1  UNL1       -0.1658
     24 F          63.1677   80.8485    9.5395 F       1  UNL1       -0.1658
     25 C          66.2206   93.0238   12.4593 C.2     1  UNL1        0.2473
     26 O          67.2163   92.6789   13.5269 O.2     1  UNL1       -0.2701
     27 N          64.8519   92.4107   12.4840 N.am    1  UNL1       -0.3024
     28 H          64.1984   92.6370   11.7833 H       1  UNL1        0.1497
     29 C          68.2908   93.9281    7.7799 C.3     1  UNL1        0.0339
     30 C          67.6288   94.4339    9.0273 C.ar    1  UNL1        0.0095
     31 C          67.2557   93.4760   10.1196 C.ar    1  UNL1        0.0046
     32 C          66.5938   93.9818   11.3670 C.ar    1  UNL1        0.0723
     33 C          66.3049   95.4455   11.5221 C.ar    1  UNL1        0.1047
     34 N          66.6780   96.4034   10.4298 N.ar    1  UNL1       -0.2298
     35 C          67.3400   95.8976    9.1824 C.ar    1  UNL1        0.1213
     36 N          67.7131   96.8556    8.0901 N.pl3   1  UNL1       -0.3429
     37 H          67.5235   97.8163    8.1919 H       1  UNL1        0.1437
     38 H          68.1475   96.5237    7.2714 H       1  UNL1        0.1437
@<TRIPOS>BOND
     1    29    30    1
     2    30    31   ar
     3    31    32   ar
     4    32    25    1
     5    25    26    2
     6    25    27   am
     7    27     1    1
     8     1     2    1
     9     2     3    1
    10     3     4    1
    11     4     5    2
    12     5     8    1
    13     8     9   ar
    14     9    10   ar
    15    10    11   ar
    16    11    12   ar
    17    12    14    1
    18    14    15    1
    19    15    16   ar
    20    16    17   ar
    21    17    18   ar
    22    18    21    1
    23    21    22    1
    24    21    23    1
    25    21    24    1
    26    18    19   ar
    27    19    20   ar
    28    12    13   ar
    29     4     6    1
    30     6     7    1
    31    32    33   ar
    32    33    34   ar
    33    34    35   ar
    34    35    36    1
    35    35    30   ar
    36     7     1    1
    37    13     8   ar
    38    20    15   ar
    39    27    28    1
    40    36    37    1
    41    36    38    1
@<TRIPOS>MOLECULE
*****
 38 41 0 0 0
SMALL
GASTEIGER

@<TRIPOS>ATOM
      1 C          60.1168   92.0720    3.9461 C.3     1  UNL1        0.0725
      2 C          61.0436   91.2115    4.7527 C.3     1  UNL1        0.0239
      3 C          60.4873   90.2492    5.7600 C.3     1  UNL1        0.0237
      4 C          59.0043   90.1474    5.9606 C.2     1  UNL1       -0.0441
      5 C          58.4480   89.1852    6.9679 C.2     1  UNL1       -0.0084
      6 C          58.0775   91.0079    5.1540 C.3     1  UNL1        0.0237
      7 C          58.6337   91.9702    4.1468 C.3     1  UNL1        0.0239
      8 C          59.3748   88.3247    7.7745 C.ar    1  UNL1        0.0024
      9 C          59.8966   87.0409    7.2003 C.ar    1  UNL1        0.0002
     10 C          60.8233   86.1804    8.0069 C.ar    1  UNL1        0.0031
     11 C          61.2284   86.6037    9.3877 C.ar    1  UNL1        0.0376
     12 C          60.7067   87.8875    9.9620 C.ar    1  UNL1        0.1472
     13 C          59.7799   88.7480    9.1554 C.ar    1  UNL1        0.0375
     14 O          61.1117   88.3107   11.3428 O.3     1  UNL1       -0.4361
     15 C          62.1664   89.3615   11.5261 C.ar    1  UNL1        0.2297
     16 C          62.5871   90.2124   10.3647 C.ar    1  UNL1        0.0581
     17 C          63.6418   91.2632   10.5480 C.ar    1  UNL1        0.0102
     18 C          64.2756   91.4631   11.8927 C.ar    1  UNL1        0.0907
     19 C          63.8549   90.6122   13.0541 C.ar    1  UNL1        0.1059
     20 N          62.8002   89.5614   12.8708 N.ar    1  UNL1       -0.2099
     21 C          65.3303   92.5139   12.0759 C.3     1  UNL1        0.4200
     22 F          66.3849   93.5646   12.2592 F       1  UNL1       -0.1658
     23 F          65.7381   91.8785   13.3721 F       1  UNL1       -0.1658
     24 F          64.9225   93.1492   10.7798 F       1  UNL1       -0.1658
     25 C          61.9796   92.7408    2.2630 C.2     1  UNL1        0.2473
     26 O          62.7299   91.4850    2.5945 O.2     1  UNL1       -0.2701
     27 N          60.6730   93.0343    2.9389 N.am    1  UNL1       -0.3024
     28 H          60.1805   93.8586    2.7213 H       1  UNL1        0.1497
     29 C          65.1603   96.6746    1.0764 C.3     1  UNL1        0.0339
     30 C          64.1261   95.6700    0.6625 C.ar    1  UNL1        0.0095
     31 C          63.5699   94.7077    1.6697 C.ar    1  UNL1        0.0046
     32 C          62.5358   93.7032    1.2557 C.ar    1  UNL1        0.0723
     33 C          62.0578   93.6609   -0.1654 C.ar    1  UNL1        0.1047
     34 N          62.6140   94.6232   -1.1726 N.ar    1  UNL1       -0.2298
     35 C          63.6482   95.6278   -0.7587 C.ar    1  UNL1        0.1213
     36 N          64.2044   96.5902   -1.7660 N.pl3   1  UNL1       -0.3429
     37 H          63.8907   96.5624   -2.6987 H       1  UNL1        0.1437
     38 H          64.8831   97.2495   -1.4943 H       1  UNL1        0.1437
@<TRIPOS>BOND
     1    29    30    1
     2    30    31   ar
     3    31    32   ar
     4    32    25    1
     5    25    26    2
     6    25    27   am
     7    27     1    1
     8     1     2    1
     9     2     3    1
    10     3     4    1
    11     4     5    2
    12     5     8    1
    13     8     9   ar
    14     9    10   ar
    15    10    11   ar
    16    11    12   ar
    17    12    14    1
    18    14    15    1
    19    15    16   ar
    20    16    17   ar
    21    17    18   ar
    22    18    21    1
    23    21    22    1
    24    21    23    1
    25    21    24    1
    26    18    19   ar
    27    19    20   ar
    28    12    13   ar
    29     4     6    1
    30     6     7    1
    31    32    33   ar
    32    33    34   ar
    33    34    35   ar
    34    35    36    1
    35    35    30   ar
    36     7     1    1
    37    13     8   ar
    38    20    15   ar
    39    27    28    1
    40    36    37    1
    41    36    38    1
@<TRIPOS>MOLECULE
*****
 38 41 0 0 0
SMALL
GASTEIGER

@<TRIPOS>ATOM
      1 C          62.1126   86.4713   11.0706 C.3     1  UNL1        0.0725
      2 C          63.0887   87.2922   11.8603 C.3     1  UNL1        0.0239
      3 C          63.2958   88.7394   11.5246 C.3     1  UNL1        0.0237
      4 C          62.5268   89.3658   10.3993 C.2     1  UNL1       -0.0441
      5 C          62.7340   90.8130   10.0637 C.2     1  UNL1       -0.0084
      6 C          61.5508   88.5450    9.6096 C.3     1  UNL1        0.0237
      7 C          61.3437   87.0978    9.9452 C.3     1  UNL1        0.0239
      8 C          63.7100   91.6338   10.8533 C.ar    1  UNL1        0.0024
      9 C          64.5592   92.6593   10.1625 C.ar    1  UNL1        0.0002
     10 C          65.5352   93.4801   10.9521 C.ar    1  UNL1        0.0031
     11 C          65.6621   93.2754   12.4327 C.ar    1  UNL1        0.0376
     12 C          64.8129   92.2499   13.1236 C.ar    1  UNL1        0.1472
     13 C          63.8369   91.4291   12.3339 C.ar    1  UNL1        0.0375
     14 O          64.9398   92.0453   14.6041 O.3     1  UNL1       -0.4361
     15 C          64.4427   90.7766   15.2312 C.ar    1  UNL1        0.2297
     16 C          64.7931   89.4515   14.6220 C.ar    1  UNL1        0.0581
     17 C          64.2960   88.1827   15.2491 C.ar    1  UNL1        0.0102
     18 C          63.4486   88.2392   16.4855 C.ar    1  UNL1        0.0907
     19 C          63.0982   89.5643   17.0947 C.ar    1  UNL1        0.1059
     20 N          63.5953   90.8330   16.4676 N.ar    1  UNL1       -0.2099
     21 C          62.9515   86.9705   17.1126 C.3     1  UNL1        0.4200
     22 F          62.4544   85.7017   17.7397 F       1  UNL1       -0.1658
     23 F          62.7702   87.6867   18.4180 F       1  UNL1       -0.1658
     24 F          63.1327   86.2542   15.8072 F       1  UNL1       -0.1658
     25 C          62.8107   84.3457   12.3912 C.2     1  UNL1        0.2473
     26 O          63.9231   85.1144   13.0406 O.2     1  UNL1       -0.2701
     27 N          61.9055   85.0241   11.4062 N.am    1  UNL1       -0.3024
     28 H          61.1754   84.5196   10.9800 H       1  UNL1        0.1497
     29 C          62.7979   79.3511   10.9580 C.3     1  UNL1        0.0339
     30 C          62.5972   80.4011   12.0102 C.ar    1  UNL1        0.0095
     31 C          62.8043   81.8483   11.6747 C.ar    1  UNL1        0.0046
     32 C          62.6036   82.8984   12.7268 C.ar    1  UNL1        0.0723
     33 C          62.1957   82.5012   14.1146 C.ar    1  UNL1        0.1047
     34 N          61.9886   81.0540   14.4501 N.ar    1  UNL1       -0.2298
     35 C          62.1893   80.0040   13.3979 C.ar    1  UNL1        0.1213
     36 N          61.9821   78.5567   13.7336 N.pl3   1  UNL1       -0.3429
     37 H          61.7144   78.2960   14.6444 H       1  UNL1        0.1437
     38 H          62.1139   77.8675   13.0430 H       1  UNL1        0.1437
@<TRIPOS>BOND
     1    29    30    1
     2    30    31   ar
     3    31    32   ar
     4    32    25    1
     5    25    26    2
     6    25    27   am
     7    27     1    1
     8     1     2    1
     9     2     3    1
    10     3     4    1
    11     4     5    2
    12     5     8    1
    13     8     9   ar
    14     9    10   ar
    15    10    11   ar
    16    11    12   ar
    17    12    14    1
    18    14    15    1
    19    15    16   ar
    20    16    17   ar
    21    17    18   ar
    22    18    21    1
    23    21    22    1
    24    21    23    1
    25    21    24    1
    26    18    19   ar
    27    19    20   ar
    28    12    13   ar
    29     4     6    1
    30     6     7    1
    31    32    33   ar
    32    33    34   ar
    33    34    35   ar
    34    35    36    1
    35    35    30   ar
    36     7     1    1
    37    13     8   ar
    38    20    15   ar
    39    27    28    1
    40    36    37    1
    41    36    38    1
@<TRIPOS>MOLECULE
*****
 38 41 0 0 0
SMALL
GASTEIGER

@<TRIPOS>ATOM
      1 C          64.1591   87.3013   15.2410 C.3     1  UNL1        0.0725
      2 C          64.2539   86.3825   14.0591 C.3     1  UNL1        0.0239
      3 C          63.6715   85.0021   14.1335 C.3     1  UNL1        0.0237
      4 C          62.9943   84.5406   15.3898 C.2     1  UNL1       -0.0441
      5 C          62.4119   83.1603   15.4643 C.2     1  UNL1       -0.0084
      6 C          62.8994   85.4594   16.5717 C.3     1  UNL1        0.0237
      7 C          63.4818   86.8397   16.4973 C.3     1  UNL1        0.0239
      8 C          62.5068   82.2415   14.2824 C.ar    1  UNL1        0.0024
      9 C          62.2956   80.7671   14.4598 C.ar    1  UNL1        0.0002
     10 C          62.3905   79.8483   13.2779 C.ar    1  UNL1        0.0031
     11 C          62.6965   80.4039   11.9186 C.ar    1  UNL1        0.0376
     12 C          62.9077   81.8784   11.7412 C.ar    1  UNL1        0.1472
     13 C          62.8128   82.7972   12.9231 C.ar    1  UNL1        0.0375
     14 O          63.2137   82.4340   10.3820 O.3     1  UNL1       -0.4361
     15 C          62.7863   83.8275   10.0277 C.ar    1  UNL1        0.2297
     16 C          63.1868   84.4228    8.7104 C.ar    1  UNL1        0.0581
     17 C          62.7594   85.8162    8.3561 C.ar    1  UNL1        0.0102
     18 C          61.9314   86.6144    9.3190 C.ar    1  UNL1        0.0907
     19 C          61.5308   86.0191   10.6363 C.ar    1  UNL1        0.1059
     20 N          61.9582   84.6256   10.9906 N.ar    1  UNL1       -0.2099
     21 C          61.5039   88.0079    8.9647 C.3     1  UNL1        0.4200
     22 F          61.0764   89.4013    8.6104 F       1  UNL1       -0.1658
     23 F          62.5714   88.5631    9.8604 F       1  UNL1       -0.1658
     24 F          60.4364   87.4527    8.0691 F       1  UNL1       -0.1658
     25 C          64.5248   89.5220   13.9431 C.2     1  UNL1        0.2473
     26 O          63.7259   88.9822   12.7941 O.2     1  UNL1       -0.2701
     27 N          64.7414   88.6816   15.1665 N.am    1  UNL1       -0.3024
     28 H          65.2658   89.0359   15.9207 H       1  UNL1        0.1497
     29 C          67.4907   93.2706   15.9808 C.3     1  UNL1        0.0339
     30 C          66.5902   92.7766   14.8876 C.ar    1  UNL1        0.0095
     31 C          66.0078   91.3963   14.9619 C.ar    1  UNL1        0.0046
     32 C          65.1072   90.9024   13.8687 C.ar    1  UNL1        0.0723
     33 C          64.7891   91.7887   12.7012 C.ar    1  UNL1        0.1047
     34 N          65.3715   93.1690   12.6269 N.ar    1  UNL1       -0.2298
     35 C          66.2720   93.6630   13.7201 C.ar    1  UNL1        0.1213
     36 N          66.8545   95.0433   13.6457 N.pl3   1  UNL1       -0.3429
     37 H          66.6456   95.6251   12.8794 H       1  UNL1        0.1437
     38 H          67.4455   95.3675   14.3632 H       1  UNL1        0.1437
@<TRIPOS>BOND
     1    29    30    1
     2    30    31   ar
     3    31    32   ar
     4    32    25    1
     5    25    26    2
     6    25    27   am
     7    27     1    1
     8     1     2    1
     9     2     3    1
    10     3     4    1
    11     4     5    2
    12     5     8    1
    13     8     9   ar
    14     9    10   ar
    15    10    11   ar
    16    11    12   ar
    17    12    14    1
    18    14    15    1
    19    15    16   ar
    20    16    17   ar
    21    17    18   ar
    22    18    21    1
    23    21    22    1
    24    21    23    1
    25    21    24    1
    26    18    19   ar
    27    19    20   ar
    28    12    13   ar
    29     4     6    1
    30     6     7    1
    31    32    33   ar
    32    33    34   ar
    33    34    35   ar
    34    35    36    1
    35    35    30   ar
    36     7     1    1
    37    13     8   ar
    38    20    15   ar
    39    27    28    1
    40    36    37    1
    41    36    38    1
@<TRIPOS>MOLECULE
*****
 38 41 0 0 0
SMALL
GASTEIGER

@<TRIPOS>ATOM
      1 C          63.4969   86.3710   15.8196 C.3     1  UNL1        0.0725
      2 C          64.2337   87.1707   14.7864 C.3     1  UNL1        0.0239
      3 C          64.4011   88.6510   14.9626 C.3     1  UNL1        0.0237
      4 C          63.8317   89.3314   16.1719 C.2     1  UNL1       -0.0441
      5 C          63.9991   90.8116   16.3481 C.2     1  UNL1       -0.0084
      6 C          63.0948   88.5318   17.2052 C.3     1  UNL1        0.0237
      7 C          62.9274   87.0516   17.0290 C.3     1  UNL1        0.0239
      8 C          64.7359   91.6113   15.3148 C.ar    1  UNL1        0.0024
      9 C          65.8329   92.5456   15.7314 C.ar    1  UNL1        0.0002
     10 C          66.5698   93.3453   14.6982 C.ar    1  UNL1        0.0031
     11 C          66.2096   93.2106   13.2484 C.ar    1  UNL1        0.0376
     12 C          65.1126   92.2763   12.8317 C.ar    1  UNL1        0.1472
     13 C          64.3757   91.4766   13.8649 C.ar    1  UNL1        0.0375
     14 O          64.7524   92.1416   11.3818 O.3     1  UNL1       -0.4361
     15 C          63.7123   91.1480   10.9565 C.ar    1  UNL1        0.2297
     16 C          63.5226   89.8807   11.7361 C.ar    1  UNL1        0.0581
     17 C          62.4825   88.8870   11.3108 C.ar    1  UNL1        0.0102
     18 C          61.6321   89.1607   10.1059 C.ar    1  UNL1        0.0907
     19 C          61.8218   90.4281    9.3263 C.ar    1  UNL1        0.1059
     20 N          62.8619   91.4217    9.7516 N.ar    1  UNL1       -0.2099
     21 C          60.5920   88.1671    9.6806 C.3     1  UNL1        0.4200
     22 F          59.5519   87.1735    9.2553 F       1  UNL1       -0.1658
     23 F          60.7848   87.4158   10.9645 F       1  UNL1       -0.1658
     24 F          60.3992   88.9184    8.3967 F       1  UNL1       -0.1658
     25 C          62.8569   84.3405   14.3306 C.2     1  UNL1        0.2473
     26 O          62.5517   85.2703   13.1938 O.2     1  UNL1       -0.2701
     27 N          63.3295   84.8909   15.6435 N.am    1  UNL1       -0.3024
     28 H          63.5298   84.2806   16.3896 H       1  UNL1        0.1497
     29 C          59.7983   80.1420   14.1981 C.3     1  UNL1        0.0339
     30 C          61.1602   80.7610   14.0882 C.ar    1  UNL1        0.0095
     31 C          61.3276   82.2412   14.2643 C.ar    1  UNL1        0.0046
     32 C          62.6895   82.8603   14.1545 C.ar    1  UNL1        0.0723
     33 C          63.8840   81.9992   13.8685 C.ar    1  UNL1        0.1047
     34 N          63.7165   80.5190   13.6925 N.ar    1  UNL1       -0.2298
     35 C          62.3547   79.9000   13.8023 C.ar    1  UNL1        0.1213
     36 N          62.1873   78.4197   13.6262 N.pl3   1  UNL1       -0.3429
     37 H          62.9712   77.8545   13.4385 H       1  UNL1        0.1437
     38 H          61.2934   78.0134   13.6983 H       1  UNL1        0.1437
@<TRIPOS>BOND
     1    29    30    1
     2    30    31   ar
     3    31    32   ar
     4    32    25    1
     5    25    26    2
     6    25    27   am
     7    27     1    1
     8     1     2    1
     9     2     3    1
    10     3     4    1
    11     4     5    2
    12     5     8    1
    13     8     9   ar
    14     9    10   ar
    15    10    11   ar
    16    11    12   ar
    17    12    14    1
    18    14    15    1
    19    15    16   ar
    20    16    17   ar
    21    17    18   ar
    22    18    21    1
    23    21    22    1
    24    21    23    1
    25    21    24    1
    26    18    19   ar
    27    19    20   ar
    28    12    13   ar
    29     4     6    1
    30     6     7    1
    31    32    33   ar
    32    33    34   ar
    33    34    35   ar
    34    35    36    1
    35    35    30   ar
    36     7     1    1
    37    13     8   ar
    38    20    15   ar
    39    27    28    1
    40    36    37    1
    41    36    38    1
@<TRIPOS>MOLECULE
*****
 38 41 0 0 0
SMALL
GASTEIGER

@<TRIPOS>ATOM
      1 C          60.2462   92.2171    3.7789 C.3     1  UNL1        0.0725
      2 C          61.1241   91.2175    4.4718 C.3     1  UNL1        0.0239
      3 C          60.5446   90.3023    5.5094 C.3     1  UNL1        0.0237
      4 C          59.0872   90.3867    5.8541 C.2     1  UNL1       -0.0441
      5 C          58.5078   89.4715    6.8917 C.2     1  UNL1       -0.0084
      6 C          58.2093   91.3862    5.1613 C.3     1  UNL1        0.0237
      7 C          58.7887   92.3014    4.1237 C.3     1  UNL1        0.0239
      8 C          59.3857   88.4719    7.5846 C.ar    1  UNL1        0.0024
      9 C          59.3793   87.0373    7.1467 C.ar    1  UNL1        0.0002
     10 C          60.2572   86.0377    7.8396 C.ar    1  UNL1        0.0031
     11 C          61.1416   86.4728    8.9703 C.ar    1  UNL1        0.0376
     12 C          61.1480   87.9075    9.4083 C.ar    1  UNL1        0.1472
     13 C          60.2701   88.9070    8.7154 C.ar    1  UNL1        0.0375
     14 O          62.0324   88.3425   10.5390 O.3     1  UNL1       -0.4361
     15 C          62.5387   87.3331   11.5263 C.ar    1  UNL1        0.2297
     16 C          62.2452   85.8758   11.3263 C.ar    1  UNL1        0.0581
     17 C          62.7515   84.8664   12.3137 C.ar    1  UNL1        0.0102
     18 C          63.5512   85.3144   13.5010 C.ar    1  UNL1        0.0907
     19 C          63.8447   86.7717   13.7009 C.ar    1  UNL1        0.1059
     20 N          63.3384   87.7811   12.7136 N.ar    1  UNL1       -0.2099
     21 C          64.0575   84.3050   14.4883 C.3     1  UNL1        0.4200
     22 F          64.5638   83.2956   15.4756 F       1  UNL1       -0.1658
     23 F          62.9765   83.3531   14.0695 F       1  UNL1       -0.1658
     24 F          65.1385   85.2568   14.9071 F       1  UNL1       -0.1658
     25 C          62.1148   92.7757    2.0625 C.2     1  UNL1        0.2473
     26 O          62.8245   91.5039    2.4212 O.2     1  UNL1       -0.2701
     27 N          60.8256   93.1323    2.7414 N.am    1  UNL1       -0.3024
     28 H          60.3598   93.9671    2.5059 H       1  UNL1        0.1497
     29 C          61.4573   96.1368   -1.8453 C.3     1  UNL1        0.0339
     30 C          62.3655   95.3715   -0.9290 C.ar    1  UNL1        0.0095
     31 C          61.7861   94.4563    0.1086 C.ar    1  UNL1        0.0046
     32 C          62.6942   93.6910    1.0249 C.ar    1  UNL1        0.0723
     33 C          64.1818   93.8409    0.9036 C.ar    1  UNL1        0.1047
     34 N          64.7611   94.7561   -0.1340 N.ar    1  UNL1       -0.2298
     35 C          63.8530   95.5215   -1.0503 C.ar    1  UNL1        0.1213
     36 N          64.4324   96.4367   -2.0879 N.pl3   1  UNL1       -0.3429
     37 H          65.4087   96.5351   -2.1675 H       1  UNL1        0.1437
     38 H          63.8364   96.9390   -2.6893 H       1  UNL1        0.1437
@<TRIPOS>BOND
     1    29    30    1
     2    30    31   ar
     3    31    32   ar
     4    32    25    1
     5    25    26    2
     6    25    27   am
     7    27     1    1
     8     1     2    1
     9     2     3    1
    10     3     4    1
    11     4     5    2
    12     5     8    1
    13     8     9   ar
    14     9    10   ar
    15    10    11   ar
    16    11    12   ar
    17    12    14    1
    18    14    15    1
    19    15    16   ar
    20    16    17   ar
    21    17    18   ar
    22    18    21    1
    23    21    22    1
    24    21    23    1
    25    21    24    1
    26    18    19   ar
    27    19    20   ar
    28    12    13   ar
    29     4     6    1
    30     6     7    1
    31    32    33   ar
    32    33    34   ar
    33    34    35   ar
    34    35    36    1
    35    35    30   ar
    36     7     1    1
    37    13     8   ar
    38    20    15   ar
    39    27    28    1
    40    36    37    1
    41    36    38    1
@<TRIPOS>MOLECULE
*****
 38 41 0 0 0
SMALL
GASTEIGER

@<TRIPOS>ATOM
      1 C          62.7719   90.4188   12.0159 C.3     1  UNL1        0.0725
      2 C          63.1986   89.1969   11.2577 C.3     1  UNL1        0.0239
      3 C          62.2362   88.5155   10.3305 C.3     1  UNL1        0.0237
      4 C          60.8473   89.0561   10.1615 C.2     1  UNL1       -0.0441
      5 C          59.8850   88.3747    9.2344 C.2     1  UNL1       -0.0084
      6 C          60.4206   90.2780   10.9197 C.3     1  UNL1        0.0237
      7 C          61.3829   90.9594   11.8469 C.3     1  UNL1        0.0239
      8 C          60.3116   87.1528    8.4762 C.ar    1  UNL1        0.0024
      9 C          59.4920   86.6640    7.3189 C.ar    1  UNL1        0.0002
     10 C          59.9187   85.4421    6.5607 C.ar    1  UNL1        0.0031
     11 C          61.1649   84.7089    6.9598 C.ar    1  UNL1        0.0376
     12 C          61.9846   85.1977    8.1172 C.ar    1  UNL1        0.1472
     13 C          61.5579   86.4196    8.8753 C.ar    1  UNL1        0.0375
     14 O          63.2308   84.4645    8.5163 O.3     1  UNL1       -0.4361
     15 C          63.4909   84.1590    9.9616 C.ar    1  UNL1        0.2297
     16 C          62.7692   84.9235   11.0314 C.ar    1  UNL1        0.0581
     17 C          63.0294   84.6181   12.4768 C.ar    1  UNL1        0.0102
     18 C          64.0113   83.5482   12.8523 C.ar    1  UNL1        0.0907
     19 C          64.7330   82.7837   11.7825 C.ar    1  UNL1        0.1059
     20 N          64.4729   83.0891   10.3371 N.ar    1  UNL1       -0.2099
     21 C          64.2714   83.2428   14.2976 C.3     1  UNL1        0.4200
     22 F          64.5316   82.9373   15.7430 F       1  UNL1       -0.1658
     23 F          63.3906   82.0325   14.2005 F       1  UNL1       -0.1658
     24 F          65.1523   84.4530   14.3948 F       1  UNL1       -0.1658
     25 C          64.9124   91.8438   12.3872 C.2     1  UNL1        0.2473
     26 O          65.1283   91.9059   10.9041 O.2     1  UNL1       -0.2701
     27 N          63.7342   91.1002   12.9430 N.am    1  UNL1       -0.3024
     28 H          63.5925   91.0594   13.9164 H       1  UNL1        0.1497
     29 C          68.1294   91.6597   16.4636 C.3     1  UNL1        0.0339
     30 C          67.4832   92.4331   15.3526 C.ar    1  UNL1        0.0095
     31 C          66.5209   91.7518   14.4254 C.ar    1  UNL1        0.0046
     32 C          65.8747   92.5252   13.3144 C.ar    1  UNL1        0.0723
     33 C          66.1908   93.9799   13.1306 C.ar    1  UNL1        0.1047
     34 N          67.1531   94.6612   14.0579 N.ar    1  UNL1       -0.2298
     35 C          67.7993   93.8878   15.1688 C.ar    1  UNL1        0.1213
     36 N          68.7616   94.5692   16.0961 N.pl3   1  UNL1       -0.3429
     37 H          68.9691   95.5240   15.9755 H       1  UNL1        0.1437
     38 H          69.1857   94.0616   16.8253 H       1  UNL1        0.1437
@<TRIPOS>BOND
     1    29    30    1
     2    30    31   ar
     3    31    32   ar
     4    32    25    1
     5    25    26    2
     6    25    27   am
     7    27     1    1
     8     1     2    1
     9     2     3    1
    10     3     4    1
    11     4     5    2
    12     5     8    1
    13     8     9   ar
    14     9    10   ar
    15    10    11   ar
    16    11    12   ar
    17    12    14    1
    18    14    15    1
    19    15    16   ar
    20    16    17   ar
    21    17    18   ar
    22    18    21    1
    23    21    22    1
    24    21    23    1
    25    21    24    1
    26    18    19   ar
    27    19    20   ar
    28    12    13   ar
    29     4     6    1
    30     6     7    1
    31    32    33   ar
    32    33    34   ar
    33    34    35   ar
    34    35    36    1
    35    35    30   ar
    36     7     1    1
    37    13     8   ar
    38    20    15   ar
    39    27    28    1
    40    36    37    1
    41    36    38    1
@<TRIPOS>MOLECULE
*****
 38 41 0 0 0
SMALL
GASTEIGER

@<TRIPOS>ATOM
      1 C          59.4414   92.0308    3.9788 C.3     1  UNL1        0.0725
      2 C          60.6214   91.5646    4.7790 C.3     1  UNL1        0.0239
      3 C          60.4216   90.6290    5.9344 C.3     1  UNL1        0.0237
      4 C          59.0419   90.1598    6.2896 C.2     1  UNL1       -0.0441
      5 C          58.8422   89.2243    7.4450 C.2     1  UNL1       -0.0084
      6 C          57.8619   90.6260    5.4894 C.3     1  UNL1        0.0237
      7 C          58.0617   91.5615    4.3341 C.3     1  UNL1        0.0239
      8 C          60.0222   88.7580    8.2451 C.ar    1  UNL1        0.0024
      9 C          60.5948   89.6359    9.3181 C.ar    1  UNL1        0.0002
     10 C          61.7748   89.1697   10.1183 C.ar    1  UNL1        0.0031
     11 C          62.3821   87.8256    9.8455 C.ar    1  UNL1        0.0376
     12 C          61.8095   86.9476    8.7725 C.ar    1  UNL1        0.1472
     13 C          60.6295   87.4138    7.9723 C.ar    1  UNL1        0.0375
     14 O          62.4168   85.6035    8.4997 O.3     1  UNL1       -0.4361
     15 C          62.7989   84.7076    9.6404 C.ar    1  UNL1        0.2297
     16 C          62.1804   84.9092   10.9920 C.ar    1  UNL1        0.0581
     17 C          62.5625   84.0133   12.1328 C.ar    1  UNL1        0.0102
     18 C          63.5630   82.9158   11.9220 C.ar    1  UNL1        0.0907
     19 C          64.1814   82.7142   10.5704 C.ar    1  UNL1        0.1059
     20 N          63.7993   83.6101    9.4296 N.ar    1  UNL1       -0.2099
     21 C          63.9450   82.0199   13.0628 C.3     1  UNL1        0.4200
     22 F          64.3271   81.1240   14.2036 F       1  UNL1       -0.1658
     23 F          64.7008   83.1497   13.6970 F       1  UNL1       -0.1658
     24 F          63.1892   80.8900   12.4286 F       1  UNL1       -0.1658
     25 C          60.9476   92.9799    2.0866 C.2     1  UNL1        0.2473
     26 O          62.0543   92.0580    2.5051 O.2     1  UNL1       -0.2701
     27 N          59.6411   92.9663    2.8235 N.am    1  UNL1       -0.3024
     28 H          58.9147   93.5714    2.5488 H       1  UNL1        0.1497
     29 C          62.8183   93.9233   -2.6684 C.3     1  UNL1        0.0339
     30 C          62.0826   94.3871   -1.4463 C.ar    1  UNL1        0.0095
     31 C          61.8829   93.4516   -0.2909 C.ar    1  UNL1        0.0046
     32 C          61.1472   93.9155    0.9312 C.ar    1  UNL1        0.0723
     33 C          60.6112   95.3148    0.9979 C.ar    1  UNL1        0.1047
     34 N          60.8109   96.2503   -0.1574 N.ar    1  UNL1       -0.2298
     35 C          61.5466   95.7865   -1.3796 C.ar    1  UNL1        0.1213
     36 N          61.7463   96.7220   -2.5350 N.pl3   1  UNL1       -0.3429
     37 H          61.3945   97.6405   -2.4912 H       1  UNL1        0.1437
     38 H          62.2292   96.4176   -3.3371 H       1  UNL1        0.1437
@<TRIPOS>BOND
     1    29    30    1
     2    30    31   ar
     3    31    32   ar
     4    32    25    1
     5    25    26    2
     6    25    27   am
     7    27     1    1
     8     1     2    1
     9     2     3    1
    10     3     4    1
    11     4     5    2
    12     5     8    1
    13     8     9   ar
    14     9    10   ar
    15    10    11   ar
    16    11    12   ar
    17    12    14    1
    18    14    15    1
    19    15    16   ar
    20    16    17   ar
    21    17    18   ar
    22    18    21    1
    23    21    22    1
    24    21    23    1
    25    21    24    1
    26    18    19   ar
    27    19    20   ar
    28    12    13   ar
    29     4     6    1
    30     6     7    1
    31    32    33   ar
    32    33    34   ar
    33    34    35   ar
    34    35    36    1
    35    35    30   ar
    36     7     1    1
    37    13     8   ar
    38    20    15   ar
    39    27    28    1
    40    36    37    1
    41    36    38    1
