@<TRIPOS>MOLECULE
*****
 34 37 0 0 0
SMALL
GASTEIGER

@<TRIPOS>ATOM
      1 C          65.2234   92.0439   12.3668 C.ar    1  UNL1       -0.0004
      2 C          64.8087   91.1919   13.5295 C.ar    1  UNL1       -0.0024
      3 C          63.6540   90.2446   13.3910 C.ar    1  UNL1       -0.0002
      4 C          62.9140   90.1493   12.0898 C.ar    1  UNL1        0.0030
      5 C          61.7592   89.2019   11.9513 C.ar    1  UNL1        0.0369
      6 C          61.0192   89.1067   10.6500 C.ar    1  UNL1        0.1391
      7 C          61.4339   89.9588    9.4872 C.ar    1  UNL1        0.0369
      8 C          62.5886   90.9061    9.6258 C.ar    1  UNL1        0.0031
      9 C          63.3286   91.0014   10.9270 C.ar    1  UNL1       -0.0001
     10 C          64.4833   91.9487   11.0655 C.ar    1  UNL1       -0.0024
     11 C          66.3781   92.9913   12.5053 C.3     1  UNL1        0.1240
     12 N          67.2396   92.9493   13.7325 N.ar    1  UNL1       -0.3045
     13 C          67.1057   93.8364   14.9346 C.ar    1  UNL1        0.0983
     14 C          68.1696   93.4482   15.9181 C.ar    1  UNL1        0.1193
     15 N          68.9612   92.3211   15.3238 N.ar    1  UNL1       -0.2223
     16 C          68.3864   92.0128   13.9730 C.ar    1  UNL1        0.1788
     17 C          66.1262   95.3754   11.5039 C.3     1  UNL1        0.0197
     18 C          66.6713   93.9806   11.4166 C.3     1  UNL1        0.0827
     19 N          67.5095   93.5752   10.2406 N.3     1  UNL1       -0.2696
     20 C          68.1148   92.2037   10.1882 C.3     1  UNL1        0.0897
     21 C          67.7426   94.5413    9.1170 C.3     1  UNL1        0.0897
     22 O          59.8645   88.1594   10.5115 O.3     1  UNL1       -0.4706
     23 C          59.9747   86.9701    9.6040 C.3     1  UNL1        0.2320
     24 C          61.1869   86.0889    9.6663 C.ar    1  UNL1        0.0213
     25 C          61.9319   85.7483    8.4098 C.ar    1  UNL1       -0.0007
     26 C          63.1442   84.8670    8.4721 C.ar    1  UNL1       -0.0001
     27 C          63.6115   84.3265    9.7909 C.ar    1  UNL1        0.0045
     28 C          62.8664   84.6671   11.0475 C.ar    1  UNL1        0.0534
     29 C          61.6542   85.5483   10.9852 C.ar    1  UNL1        0.0038
     30 C          63.3337   84.1266   12.3664 C.2     1  UNL1        0.2491
     31 O          63.8719   85.0589   13.4109 O.2     1  UNL1       -0.2699
     32 N          63.2627   82.6535   12.6408 N.am    1  UNL1       -0.2726
     33 C          63.7299   82.1130   13.9597 C.3     1  UNL1        0.1152
     34 C          62.7244   81.7212   11.5964 C.3     1  UNL1        0.1152
@<TRIPOS>BOND
     1    17    18    1
     2    18    11    1
     3    11     1    1
     4     1     2   ar
     5     2     3   ar
     6     3     4   ar
     7     4     5   ar
     8     5     6   ar
     9     6    22    1
    10    22    23    1
    11    23    24    1
    12    24    25   ar
    13    25    26   ar
    14    26    27   ar
    15    27    28   ar
    16    28    30    1
    17    30    31    2
    18    30    32   am
    19    32    33    1
    20    32    34    1
    21    28    29   ar
    22     6     7   ar
    23     7     8   ar
    24     8     9   ar
    25     9    10   ar
    26    11    12    1
    27    12    13   ar
    28    13    14   ar
    29    14    15   ar
    30    15    16   ar
    31    18    19    1
    32    19    20    1
    33    19    21    1
    34    10     1   ar
    35    16    12   ar
    36     9     4   ar
    37    29    24   ar
@<TRIPOS>MOLECULE
*****
 34 37 0 0 0
SMALL
GASTEIGER

@<TRIPOS>ATOM
      1 C          65.3461   91.9087   12.5029 C.ar    1  UNL1       -0.0004
      2 C          64.9735   90.9775   13.6182 C.ar    1  UNL1       -0.0024
      3 C          63.8144   90.0393   13.4563 C.ar    1  UNL1       -0.0002
      4 C          63.0279   90.0324   12.1790 C.ar    1  UNL1        0.0030
      5 C          61.8687   89.0942   12.0171 C.ar    1  UNL1        0.0369
      6 C          61.0822   89.0872   10.7399 C.ar    1  UNL1        0.1391
      7 C          61.4549   90.0185    9.6245 C.ar    1  UNL1        0.0369
      8 C          62.6140   90.9566    9.7865 C.ar    1  UNL1        0.0031
      9 C          63.4005   90.9636   11.0637 C.ar    1  UNL1       -0.0001
     10 C          64.5596   91.9017   11.2256 C.ar    1  UNL1       -0.0024
     11 C          66.5053   92.8469   12.6648 C.3     1  UNL1        0.1240
     12 N          66.5953   94.0811   11.8170 N.ar    1  UNL1       -0.3045
     13 C          66.9966   94.1312   10.3726 C.ar    1  UNL1        0.0983
     14 C          66.9492   95.5629    9.9276 C.ar    1  UNL1        0.1193
     15 N          66.5185   96.3976   11.0971 N.ar    1  UNL1       -0.2223
     16 C          66.2998   95.4818   12.2648 C.ar    1  UNL1        0.1788
     17 C          68.7614   91.7191   13.2880 C.3     1  UNL1        0.0197
     18 C          67.5744   92.5509   13.6744 C.3     1  UNL1        0.0827
     19 N          67.4566   93.0868   15.0705 N.3     1  UNL1       -0.2696
     20 C          66.2043   92.8499   15.8616 C.3     1  UNL1        0.0897
     21 C          68.5910   93.8595   15.6755 C.3     1  UNL1        0.0897
     22 O          59.9231   88.1491   10.5779 O.3     1  UNL1       -0.4706
     23 C          60.0285   86.9810    9.6426 C.3     1  UNL1        0.2320
     24 C          61.2329   86.0883    9.6905 C.ar    1  UNL1        0.0213
     25 C          61.9798   85.7684    8.4296 C.ar    1  UNL1       -0.0007
     26 C          63.1843   84.8756    8.4774 C.ar    1  UNL1       -0.0001
     27 C          63.6418   84.3027    9.7860 C.ar    1  UNL1        0.0045
     28 C          62.8948   84.6226   11.0469 C.ar    1  UNL1        0.0534
     29 C          61.6904   85.5154   10.9991 C.ar    1  UNL1        0.0038
     30 C          63.3523   84.0498   12.3555 C.2     1  UNL1        0.2491
     31 O          63.8575   84.9587   13.4365 O.2     1  UNL1       -0.2699
     32 N          63.3046   82.5679   12.5832 N.am    1  UNL1       -0.2726
     33 C          63.7621   81.9950   13.8918 C.3     1  UNL1        0.1152
     34 C          62.7994   81.6589   11.5022 C.3     1  UNL1        0.1152
@<TRIPOS>BOND
     1    17    18    1
     2    18    11    1
     3    11     1    1
     4     1     2   ar
     5     2     3   ar
     6     3     4   ar
     7     4     5   ar
     8     5     6   ar
     9     6    22    1
    10    22    23    1
    11    23    24    1
    12    24    25   ar
    13    25    26   ar
    14    26    27   ar
    15    27    28   ar
    16    28    30    1
    17    30    31    2
    18    30    32   am
    19    32    33    1
    20    32    34    1
    21    28    29   ar
    22     6     7   ar
    23     7     8   ar
    24     8     9   ar
    25     9    10   ar
    26    11    12    1
    27    12    13   ar
    28    13    14   ar
    29    14    15   ar
    30    15    16   ar
    31    18    19    1
    32    19    20    1
    33    19    21    1
    34    10     1   ar
    35    16    12   ar
    36     9     4   ar
    37    29    24   ar
@<TRIPOS>MOLECULE
*****
 34 37 0 0 0
SMALL
GASTEIGER

@<TRIPOS>ATOM
      1 C          65.0748   92.4520   11.6278 C.ar    1  UNL1       -0.0004
      2 C          64.6497   92.4789   10.1896 C.ar    1  UNL1       -0.0024
      3 C          63.5019   91.6292    9.7308 C.ar    1  UNL1       -0.0002
      4 C          62.7792   90.7525   10.7102 C.ar    1  UNL1        0.0030
      5 C          61.6314   89.9028   10.2514 C.ar    1  UNL1        0.0369
      6 C          60.9088   89.0261   11.2308 C.ar    1  UNL1        0.1391
      7 C          61.3340   88.9992   12.6691 C.ar    1  UNL1        0.0369
      8 C          62.4817   89.8489   13.1279 C.ar    1  UNL1        0.0031
      9 C          63.2044   90.7256   12.1484 C.ar    1  UNL1       -0.0001
     10 C          64.3522   91.5753   12.6072 C.ar    1  UNL1       -0.0024
     11 C          66.2226   93.3017   12.0867 C.3     1  UNL1        0.1240
     12 N          66.9050   93.0011   13.3882 N.ar    1  UNL1       -0.3045
     13 C          66.7175   93.7483   14.6753 C.ar    1  UNL1        0.0983
     14 C          67.5913   93.1094   15.7137 C.ar    1  UNL1        0.1193
     15 N          68.3189   91.9674   15.0685 N.ar    1  UNL1       -0.2223
     16 C          67.8947   91.9005   13.6312 C.ar    1  UNL1        0.1788
     17 C          66.2714   95.8512   11.5888 C.3     1  UNL1        0.0197
     18 C          66.6880   94.4520   11.2440 C.3     1  UNL1        0.0827
     19 N          67.5702   94.2033   10.0566 N.3     1  UNL1       -0.2696
     20 C          67.7245   95.2594    9.0026 C.3     1  UNL1        0.0897
     21 C          68.2979   92.8985    9.9231 C.3     1  UNL1        0.0897
     22 O          59.7610   88.1764   10.7720 O.3     1  UNL1       -0.4706
     23 C          59.9682   87.1552    9.6929 C.3     1  UNL1        0.2320
     24 C          61.1559   86.2405    9.7440 C.ar    1  UNL1        0.0213
     25 C          61.8732   85.8715    8.4794 C.ar    1  UNL1       -0.0007
     26 C          63.0610   84.9568    8.5303 C.ar    1  UNL1       -0.0001
     27 C          63.5314   84.4112    9.8460 C.ar    1  UNL1        0.0045
     28 C          62.8140   84.7802   11.1107 C.ar    1  UNL1        0.0534
     29 C          61.6263   85.6949   11.0596 C.ar    1  UNL1        0.0038
     30 C          63.2845   84.2345   12.4263 C.2     1  UNL1        0.2491
     31 O          63.8169   85.1638   13.4764 O.2     1  UNL1       -0.2699
     32 N          63.2224   82.7595   12.6918 N.am    1  UNL1       -0.2726
     33 C          63.6928   82.2138   14.0075 C.3     1  UNL1        0.1152
     34 C          62.6899   81.8302   11.6417 C.3     1  UNL1        0.1152
@<TRIPOS>BOND
     1    17    18    1
     2    18    11    1
     3    11     1    1
     4     1     2   ar
     5     2     3   ar
     6     3     4   ar
     7     4     5   ar
     8     5     6   ar
     9     6    22    1
    10    22    23    1
    11    23    24    1
    12    24    25   ar
    13    25    26   ar
    14    26    27   ar
    15    27    28   ar
    16    28    30    1
    17    30    31    2
    18    30    32   am
    19    32    33    1
    20    32    34    1
    21    28    29   ar
    22     6     7   ar
    23     7     8   ar
    24     8     9   ar
    25     9    10   ar
    26    11    12    1
    27    12    13   ar
    28    13    14   ar
    29    14    15   ar
    30    15    16   ar
    31    18    19    1
    32    19    20    1
    33    19    21    1
    34    10     1   ar
    35    16    12   ar
    36     9     4   ar
    37    29    24   ar
@<TRIPOS>MOLECULE
*****
 34 37 0 0 0
SMALL
GASTEIGER

@<TRIPOS>ATOM
      1 C          62.3884   88.0956   10.8159 C.ar    1  UNL1       -0.0004
      2 C          62.3977   89.4509   10.1733 C.ar    1  UNL1       -0.0024
      3 C          62.9892   90.6218   10.9007 C.ar    1  UNL1       -0.0002
      4 C          63.5715   90.4373   12.2707 C.ar    1  UNL1        0.0030
      5 C          64.1630   91.6082   12.9981 C.ar    1  UNL1        0.0369
      6 C          64.7453   91.4237   14.3681 C.ar    1  UNL1        0.1391
      7 C          64.7360   90.0683   15.0107 C.ar    1  UNL1        0.0369
      8 C          64.1445   88.8975   14.2833 C.ar    1  UNL1        0.0031
      9 C          63.5622   89.0819   12.9133 C.ar    1  UNL1       -0.0001
     10 C          62.9707   87.9111   12.1859 C.ar    1  UNL1       -0.0024
     11 C          61.7969   86.9247   10.0885 C.3     1  UNL1        0.1240
     12 N          60.7227   87.1427    9.0645 N.ar    1  UNL1       -0.3045
     13 C          60.1439   88.4667    8.6620 C.ar    1  UNL1        0.0983
     14 C          59.1022   88.2174    7.6119 C.ar    1  UNL1        0.1193
     15 N          59.0371   86.7392    7.3654 N.ar    1  UNL1       -0.2223
     16 C          60.0386   86.0750    8.2631 C.ar    1  UNL1        0.1788
     17 C          61.9256   84.8809   11.6874 C.3     1  UNL1        0.0197
     18 C          62.2795   85.5358   10.3851 C.3     1  UNL1        0.0827
     19 N          63.1160   84.8017    9.3794 N.3     1  UNL1       -0.2696
     20 C          63.8765   83.5752    9.7886 C.3     1  UNL1        0.0897
     21 C          63.1921   85.2941    7.9646 C.3     1  UNL1        0.0897
     22 O          65.3368   92.5945   15.0956 O.3     1  UNL1       -0.4706
     23 C          66.5358   93.2991   14.5332 C.3     1  UNL1        0.2320
     24 C          66.7865   93.2889   13.0543 C.ar    1  UNL1        0.0213
     25 C          67.5380   92.1514   12.4289 C.ar    1  UNL1       -0.0007
     26 C          67.7887   92.1413   10.9499 C.ar    1  UNL1       -0.0001
     27 C          67.2878   93.2686   10.0966 C.ar    1  UNL1        0.0045
     28 C          66.5362   94.4061   10.7221 C.ar    1  UNL1        0.0534
     29 C          66.2856   94.4163   12.2010 C.ar    1  UNL1        0.0038
     30 C          66.0353   95.5335    9.8688 C.2     1  UNL1        0.2491
     31 O          64.9862   96.4658   10.3980 O.2     1  UNL1       -0.2699
     32 N          66.5836   95.7284    8.4862 N.am    1  UNL1       -0.2726
     33 C          66.0827   96.8557    7.6328 C.3     1  UNL1        0.1152
     34 C          67.6326   94.7960    7.9570 C.3     1  UNL1        0.1152
@<TRIPOS>BOND
     1    17    18    1
     2    18    11    1
     3    11     1    1
     4     1     2   ar
     5     2     3   ar
     6     3     4   ar
     7     4     5   ar
     8     5     6   ar
     9     6    22    1
    10    22    23    1
    11    23    24    1
    12    24    25   ar
    13    25    26   ar
    14    26    27   ar
    15    27    28   ar
    16    28    30    1
    17    30    31    2
    18    30    32   am
    19    32    33    1
    20    32    34    1
    21    28    29   ar
    22     6     7   ar
    23     7     8   ar
    24     8     9   ar
    25     9    10   ar
    26    11    12    1
    27    12    13   ar
    28    13    14   ar
    29    14    15   ar
    30    15    16   ar
    31    18    19    1
    32    19    20    1
    33    19    21    1
    34    10     1   ar
    35    16    12   ar
    36     9     4   ar
    37    29    24   ar
@<TRIPOS>MOLECULE
*****
 34 37 0 0 0
SMALL
GASTEIGER

@<TRIPOS>ATOM
      1 C          63.5248   85.7064   12.8754 C.ar    1  UNL1       -0.0004
      2 C          64.2344   85.6621   14.1961 C.ar    1  UNL1       -0.0024
      3 C          64.6211   86.9383   14.8829 C.ar    1  UNL1       -0.0002
      4 C          64.2983   88.2588   14.2488 C.ar    1  UNL1        0.0030
      5 C          64.6851   89.5351   14.9357 C.ar    1  UNL1        0.0369
      6 C          64.3622   90.8556   14.3016 C.ar    1  UNL1        0.1391
      7 C          63.6526   90.8998   12.9808 C.ar    1  UNL1        0.0369
      8 C          63.2658   89.6236   12.2940 C.ar    1  UNL1        0.0031
      9 C          63.5887   88.3031   12.9281 C.ar    1  UNL1       -0.0001
     10 C          63.2020   87.0269   12.2413 C.ar    1  UNL1       -0.0024
     11 C          63.1381   84.4301   12.1885 C.3     1  UNL1        0.1240
     12 N          62.6137   83.2760   12.9904 N.ar    1  UNL1       -0.3045
     13 C          62.3061   81.9050   12.4654 C.ar    1  UNL1        0.0983
     14 C          61.8071   81.0719   13.6086 C.ar    1  UNL1        0.1193
     15 N          61.8062   81.9281   14.8403 N.ar    1  UNL1       -0.2223
     16 C          62.3047   83.2903   14.4582 C.ar    1  UNL1        0.1788
     17 C          64.2278   83.3076   10.1143 C.3     1  UNL1        0.0197
     18 C          63.2757   84.3080   10.6999 C.3     1  UNL1        0.0827
     19 N          62.4614   85.1862    9.7968 N.3     1  UNL1       -0.2696
     20 C          61.1837   85.7943   10.2947 C.3     1  UNL1        0.0897
     21 C          62.9246   85.4563    8.3960 C.3     1  UNL1        0.0897
     22 O          64.7489   92.1318   14.9884 O.3     1  UNL1       -0.4706
     23 C          66.0690   92.7765   14.6851 C.3     1  UNL1        0.2320
     24 C          66.5221   92.9249   13.2629 C.ar    1  UNL1        0.0213
     25 C          67.4262   91.8953   12.6526 C.ar    1  UNL1       -0.0007
     26 C          67.8793   92.0437   11.2303 C.ar    1  UNL1       -0.0001
     27 C          67.4283   93.2216   10.4185 C.ar    1  UNL1        0.0045
     28 C          66.5241   94.2511   11.0289 C.ar    1  UNL1        0.0534
     29 C          66.0710   94.1028   12.4511 C.ar    1  UNL1        0.0038
     30 C          66.0730   95.4290   10.2170 C.2     1  UNL1        0.2491
     31 O          65.0419   96.3689   10.7678 O.2     1  UNL1       -0.2699
     32 N          66.6531   95.6670    8.8543 N.am    1  UNL1       -0.2726
     33 C          66.2020   96.8449    8.0425 C.3     1  UNL1        0.1152
     34 C          67.6842   94.7272    8.3035 C.3     1  UNL1        0.1152
@<TRIPOS>BOND
     1    17    18    1
     2    18    11    1
     3    11     1    1
     4     1     2   ar
     5     2     3   ar
     6     3     4   ar
     7     4     5   ar
     8     5     6   ar
     9     6    22    1
    10    22    23    1
    11    23    24    1
    12    24    25   ar
    13    25    26   ar
    14    26    27   ar
    15    27    28   ar
    16    28    30    1
    17    30    31    2
    18    30    32   am
    19    32    33    1
    20    32    34    1
    21    28    29   ar
    22     6     7   ar
    23     7     8   ar
    24     8     9   ar
    25     9    10   ar
    26    11    12    1
    27    12    13   ar
    28    13    14   ar
    29    14    15   ar
    30    15    16   ar
    31    18    19    1
    32    19    20    1
    33    19    21    1
    34    10     1   ar
    35    16    12   ar
    36     9     4   ar
    37    29    24   ar
@<TRIPOS>MOLECULE
*****
 34 37 0 0 0
SMALL
GASTEIGER

@<TRIPOS>ATOM
      1 C          63.2395   86.3655   12.5300 C.ar    1  UNL1       -0.0004
      2 C          63.9549   86.1121   13.8238 C.ar    1  UNL1       -0.0024
      3 C          64.4857   87.2636   14.6253 C.ar    1  UNL1       -0.0002
      4 C          64.3010   88.6684   14.1330 C.ar    1  UNL1        0.0030
      5 C          64.8318   89.8199   14.9345 C.ar    1  UNL1        0.0369
      6 C          64.6471   91.2247   14.4422 C.ar    1  UNL1        0.1391
      7 C          63.9316   91.4781   13.1484 C.ar    1  UNL1        0.0369
      8 C          63.4008   90.3266   12.3469 C.ar    1  UNL1        0.0031
      9 C          63.5855   88.9218   12.8392 C.ar    1  UNL1       -0.0001
     10 C          63.0548   87.7703   12.0377 C.ar    1  UNL1       -0.0024
     11 C          62.7087   85.2140   11.7285 C.3     1  UNL1        0.1240
     12 N          62.1343   85.4520   10.3634 N.ar    1  UNL1       -0.3045
     13 C          62.7947   85.1187    9.0585 C.ar    1  UNL1        0.0983
     14 C          61.8671   85.5258    7.9522 C.ar    1  UNL1        0.1193
     15 N          60.6334   86.1107    8.5734 N.ar    1  UNL1       -0.2223
     16 C          60.7985   86.0651   10.0636 C.ar    1  UNL1        0.1788
     17 C          62.1075   83.5308   13.6141 C.3     1  UNL1        0.0197
     18 C          62.7524   83.8246   12.2920 C.3     1  UNL1        0.0827
     19 N          63.4409   82.7289   11.5335 N.3     1  UNL1       -0.2696
     20 C          62.8979   81.3312   11.5764 C.3     1  UNL1        0.0897
     21 C          64.6724   83.0308   10.7321 C.3     1  UNL1        0.0897
     22 O          65.1778   92.3762   15.2437 O.3     1  UNL1       -0.4706
     23 C          66.3430   93.1713   14.7334 C.3     1  UNL1        0.2320
     24 C          66.6532   93.1900   13.2660 C.ar    1  UNL1        0.0213
     25 C          67.4208   92.0595   12.6474 C.ar    1  UNL1       -0.0007
     26 C          67.7311   92.0780   11.1799 C.ar    1  UNL1       -0.0001
     27 C          67.2738   93.2272   10.3311 C.ar    1  UNL1        0.0045
     28 C          66.5062   94.3577   10.9499 C.ar    1  UNL1        0.0534
     29 C          66.1959   94.3391   12.4173 C.ar    1  UNL1        0.0038
     30 C          66.0489   95.5068   10.1011 C.2     1  UNL1        0.2491
     31 O          65.0131   96.4584   10.6221 O.2     1  UNL1       -0.2699
     32 N          66.6275   95.7043    8.7313 N.am    1  UNL1       -0.2726
     33 C          66.1703   96.8534    7.8825 C.3     1  UNL1        0.1152
     34 C          67.6634   94.7527    8.2103 C.3     1  UNL1        0.1152
@<TRIPOS>BOND
     1    17    18    1
     2    18    11    1
     3    11     1    1
     4     1     2   ar
     5     2     3   ar
     6     3     4   ar
     7     4     5   ar
     8     5     6   ar
     9     6    22    1
    10    22    23    1
    11    23    24    1
    12    24    25   ar
    13    25    26   ar
    14    26    27   ar
    15    27    28   ar
    16    28    30    1
    17    30    31    2
    18    30    32   am
    19    32    33    1
    20    32    34    1
    21    28    29   ar
    22     6     7   ar
    23     7     8   ar
    24     8     9   ar
    25     9    10   ar
    26    11    12    1
    27    12    13   ar
    28    13    14   ar
    29    14    15   ar
    30    15    16   ar
    31    18    19    1
    32    19    20    1
    33    19    21    1
    34    10     1   ar
    35    16    12   ar
    36     9     4   ar
    37    29    24   ar
@<TRIPOS>MOLECULE
*****
 34 37 0 0 0
SMALL
GASTEIGER

@<TRIPOS>ATOM
      1 C          61.2882   93.1023    2.2040 C.ar    1  UNL1       -0.0004
      2 C          62.3729   92.2520    2.7957 C.ar    1  UNL1       -0.0024
      3 C          62.0574   91.3065    3.9166 C.ar    1  UNL1       -0.0002
      4 C          60.6570   91.2113    4.4457 C.ar    1  UNL1        0.0030
      5 C          60.3415   90.2657    5.5666 C.ar    1  UNL1        0.0369
      6 C          58.9411   90.1705    6.0957 C.ar    1  UNL1        0.1391
      7 C          57.8563   91.0208    5.5039 C.ar    1  UNL1        0.0369
      8 C          58.1719   91.9663    4.3830 C.ar    1  UNL1        0.0031
      9 C          59.5722   92.0615    3.8539 C.ar    1  UNL1       -0.0001
     10 C          59.8878   93.0070    2.7330 C.ar    1  UNL1       -0.0024
     11 C          61.6037   94.0478    1.0830 C.3     1  UNL1        0.1240
     12 N          62.9952   94.5850    0.9242 N.ar    1  UNL1       -0.3045
     13 C          63.5815   95.7483    1.6678 C.ar    1  UNL1        0.0983
     14 C          64.9933   95.9354    1.1971 C.ar    1  UNL1        0.1193
     15 N          65.2797   94.8877    0.1625 N.ar    1  UNL1       -0.2223
     16 C          64.0448   94.0531   -0.0061 C.ar    1  UNL1        0.1788
     17 C          59.7908   95.7469    0.3236 C.3     1  UNL1        0.0197
     18 C          60.5278   94.4562    0.1210 C.3     1  UNL1        0.0827
     19 N          60.1888   93.5739   -1.0438 N.3     1  UNL1       -0.2696
     20 C          59.1391   92.5120   -0.8998 C.3     1  UNL1        0.0897
     21 C          60.8994   93.7534   -2.3525 C.3     1  UNL1        0.0897
     22 O          58.6255   89.2250    7.2166 O.3     1  UNL1       -0.4706
     23 C          59.5391   88.0704    7.5036 C.3     1  UNL1        0.2320
     24 C          60.4555   88.1160    8.6902 C.ar    1  UNL1        0.0213
     25 C          60.8930   89.4372    9.2495 C.ar    1  UNL1       -0.0007
     26 C          61.8095   89.4829   10.4362 C.ar    1  UNL1       -0.0001
     27 C          62.2883   88.2073   11.0635 C.ar    1  UNL1        0.0045
     28 C          61.8507   86.8860   10.5041 C.ar    1  UNL1        0.0534
     29 C          60.9343   86.8404    9.3175 C.ar    1  UNL1        0.0038
     30 C          62.3295   85.6104   11.1315 C.2     1  UNL1        0.2491
     31 O          62.1002   85.3609   12.5927 O.2     1  UNL1       -0.2699
     32 N          63.0378   84.5842   10.2975 N.am    1  UNL1       -0.2726
     33 C          63.5166   83.3086   10.9248 C.3     1  UNL1        0.1152
     34 C          63.2671   84.8336    8.8363 C.3     1  UNL1        0.1152
@<TRIPOS>BOND
     1    17    18    1
     2    18    11    1
     3    11     1    1
     4     1     2   ar
     5     2     3   ar
     6     3     4   ar
     7     4     5   ar
     8     5     6   ar
     9     6    22    1
    10    22    23    1
    11    23    24    1
    12    24    25   ar
    13    25    26   ar
    14    26    27   ar
    15    27    28   ar
    16    28    30    1
    17    30    31    2
    18    30    32   am
    19    32    33    1
    20    32    34    1
    21    28    29   ar
    22     6     7   ar
    23     7     8   ar
    24     8     9   ar
    25     9    10   ar
    26    11    12    1
    27    12    13   ar
    28    13    14   ar
    29    14    15   ar
    30    15    16   ar
    31    18    19    1
    32    19    20    1
    33    19    21    1
    34    10     1   ar
    35    16    12   ar
    36     9     4   ar
    37    29    24   ar
@<TRIPOS>MOLECULE
*****
 34 37 0 0 0
SMALL
GASTEIGER

@<TRIPOS>ATOM
      1 C          61.3239   93.0563    2.1818 C.ar    1  UNL1       -0.0004
      2 C          62.4025   92.2028    2.7801 C.ar    1  UNL1       -0.0024
      3 C          62.0805   91.2692    3.9091 C.ar    1  UNL1       -0.0002
      4 C          60.6798   91.1892    4.4399 C.ar    1  UNL1        0.0030
      5 C          60.3578   90.2556    5.5690 C.ar    1  UNL1        0.0369
      6 C          58.9572   90.1756    6.0997 C.ar    1  UNL1        0.1391
      7 C          57.8785   91.0292    5.5014 C.ar    1  UNL1        0.0369
      8 C          58.2005   91.9627    4.3724 C.ar    1  UNL1        0.0031
      9 C          59.6012   92.0427    3.8416 C.ar    1  UNL1       -0.0001
     10 C          59.9232   92.9763    2.7126 C.ar    1  UNL1       -0.0024
     11 C          61.6459   93.9899    1.0527 C.3     1  UNL1        0.1240
     12 N          60.6342   94.2386   -0.0265 N.ar    1  UNL1       -0.3045
     13 C          60.2788   93.2943   -1.1364 C.ar    1  UNL1        0.0983
     14 C          59.2253   93.9474   -1.9811 C.ar    1  UNL1        0.1193
     15 N          58.9296   95.2954   -1.3933 N.ar    1  UNL1       -0.2223
     16 C          59.8004   95.4754   -0.1853 C.ar    1  UNL1        0.1788
     17 C          63.2143   95.9188    1.8074 C.3     1  UNL1        0.0197
     18 C          62.9795   94.6747    1.0029 C.3     1  UNL1        0.0827
     19 N          64.0783   94.1155    0.1486 N.3     1  UNL1       -0.2696
     20 C          65.2816   93.4894    0.7892 C.3     1  UNL1        0.0897
     21 C          63.9739   94.1823   -1.3463 C.3     1  UNL1        0.0897
     22 O          58.6351   89.2420    7.2288 O.3     1  UNL1       -0.4706
     23 C          59.5408   88.0837    7.5258 C.3     1  UNL1        0.2320
     24 C          60.4551   88.1319    8.7138 C.ar    1  UNL1        0.0213
     25 C          60.8966   89.4544    9.2672 C.ar    1  UNL1       -0.0007
     26 C          61.8110   89.5027   10.4553 C.ar    1  UNL1       -0.0001
     27 C          62.2838   88.2285   11.0901 C.ar    1  UNL1        0.0045
     28 C          61.8423   86.9060   10.5367 C.ar    1  UNL1        0.0534
     29 C          60.9279   86.8578    9.3486 C.ar    1  UNL1        0.0038
     30 C          62.3151   85.6319   11.1714 C.2     1  UNL1        0.2491
     31 O          62.0874   85.3934   12.6347 O.2     1  UNL1       -0.2699
     32 N          63.0157   84.5961   10.3428 N.am    1  UNL1       -0.2726
     33 C          63.4885   83.3219   10.9776 C.3     1  UNL1        0.1152
     34 C          63.2434   84.8346    8.8795 C.3     1  UNL1        0.1152
@<TRIPOS>BOND
     1    17    18    1
     2    18    11    1
     3    11     1    1
     4     1     2   ar
     5     2     3   ar
     6     3     4   ar
     7     4     5   ar
     8     5     6   ar
     9     6    22    1
    10    22    23    1
    11    23    24    1
    12    24    25   ar
    13    25    26   ar
    14    26    27   ar
    15    27    28   ar
    16    28    30    1
    17    30    31    2
    18    30    32   am
    19    32    33    1
    20    32    34    1
    21    28    29   ar
    22     6     7   ar
    23     7     8   ar
    24     8     9   ar
    25     9    10   ar
    26    11    12    1
    27    12    13   ar
    28    13    14   ar
    29    14    15   ar
    30    15    16   ar
    31    18    19    1
    32    19    20    1
    33    19    21    1
    34    10     1   ar
    35    16    12   ar
    36     9     4   ar
    37    29    24   ar
