@<TRIPOS>MOLECULE
*****
 36 39 0 0 0
SMALL
GASTEIGER

@<TRIPOS>ATOM
      1 O          63.5605   87.5172   14.4645 O.3     1  UNL1       -0.4731
      2 C          64.0341   88.8544   13.9772 C.ar    1  UNL1        0.1681
      3 C          65.1502   89.5598   14.6890 C.ar    1  UNL1        0.0702
      4 C          65.6238   90.8970   14.2017 C.ar    1  UNL1        0.1620
      5 F          66.7400   91.6025   14.9136 F       1  UNL1       -0.2026
      6 C          64.9814   91.5288   13.0025 C.ar    1  UNL1        0.1549
      7 C          63.8653   90.8234   12.2906 C.ar    1  UNL1        0.0553
      8 C          63.3917   89.4862   12.7780 C.ar    1  UNL1        0.1753
      9 F          62.2756   88.7807   12.0661 F       1  UNL1       -0.2009
     10 S          65.4550   92.8660   12.5152 S.O2    1  UNL1        0.0773
     11 O          65.0816   92.4872   11.1126 O.2     1  UNL1       -0.1498
     12 O          65.8284   93.2449   13.9176 O.2     1  UNL1       -0.1498
     13 N          65.9286   94.2033   12.0278 N.pl3   1  UNL1       -0.1925
     14 H          65.7107   95.0179   12.5359 H       1  UNL1        0.1758
     15 C          66.7344   94.2993   10.7662 C.ar    1  UNL1        0.1977
     16 N          67.7844   93.3278   10.3146 N.ar    1  UNL1       -0.1997
     17 C          68.3306   93.8116    9.0041 C.ar    1  UNL1        0.2082
     18 N          67.6183   95.0821    8.6457 N.ar    1  UNL1       -0.1840
     19 S          66.6317   95.3834    9.7348 S.2     1  UNL1        0.0508
     20 C          63.9343   86.2712   13.7176 C.3     1  UNL1        0.2058
     21 C          63.0658   85.7788   12.5982 C.3     1  UNL1        0.0514
     22 N          63.6188   80.3335   14.2969 N.3     1  UNL1       -0.3222
     23 C          63.4131   81.6599   13.6272 C.3     1  UNL1        0.0508
     24 C          63.6087   82.9295   14.4017 C.3     1  UNL1        0.0158
     25 C          63.4031   84.2558   13.7320 C.3     1  UNL1        0.0055
     26 C          63.0018   84.3126   12.2878 C.3     1  UNL1        0.0226
     27 C          62.8061   83.0431   11.5133 C.3     1  UNL1        0.0055
     28 C          63.0118   81.7167   12.1830 C.3     1  UNL1        0.0158
     29 H          63.8863   80.4818   15.2699 H       1  UNL1        0.1188
     30 H          64.3574   79.8205   13.8155 H       1  UNL1        0.1188
     31 C          62.6227   84.8786   10.9514 C.ar    1  UNL1       -0.0227
     32 C          61.4699   85.8319   10.8403 C.ar    1  UNL1       -0.0043
     33 C          61.0908   86.3979    9.5039 C.ar    1  UNL1       -0.0003
     34 C          61.8645   86.0105    8.2786 C.ar    1  UNL1       -0.0000
     35 C          63.0173   85.0572    8.3897 C.ar    1  UNL1       -0.0003
     36 C          63.3963   84.4913    9.7261 C.ar    1  UNL1       -0.0043
@<TRIPOS>BOND
     1    23    22    1
     2    23    24    1
     3    24    25    1
     4    25    26    1
     5    26    21    1
     6    21    20    1
     7    20     1    1
     8     1     2    1
     9     2     3   ar
    10     3     4   ar
    11     4     5    1
    12     4     6   ar
    13     6    10    1
    14    10    11    2
    15    10    12    2
    16    10    13    1
    17    13    15    1
    18    15    16   ar
    19    16    17   ar
    20    17    18   ar
    21    18    19   ar
    22     6     7   ar
    23     7     8   ar
    24     8     9    1
    25    26    31    1
    26    31    32   ar
    27    32    33   ar
    28    33    34   ar
    29    34    35   ar
    30    35    36   ar
    31    26    27    1
    32    27    28    1
    33    28    23    1
    34     8     2   ar
    35    36    31   ar
    36    19    15   ar
    37    22    29    1
    38    22    30    1
    39    13    14    1
@<TRIPOS>MOLECULE
*****
 36 39 0 0 0
SMALL
GASTEIGER

@<TRIPOS>ATOM
      1 O          63.4800   89.5023   16.5550 O.3     1  UNL1       -0.4731
      2 C          63.4352   88.0396   16.2258 C.ar    1  UNL1        0.1681
      3 C          63.8420   87.5649   14.8623 C.ar    1  UNL1        0.0702
      4 C          63.7972   86.1022   14.5331 C.ar    1  UNL1        0.1620
      5 F          64.2040   85.6275   13.1695 F       1  UNL1       -0.2026
      6 C          63.3457   85.1141   15.5674 C.ar    1  UNL1        0.1549
      7 C          62.9390   85.5888   16.9310 C.ar    1  UNL1        0.0553
      8 C          62.9837   87.0515   17.2602 C.ar    1  UNL1        0.1753
      9 F          62.5770   87.5262   18.6237 F       1  UNL1       -0.2009
     10 S          63.3010   83.6514   15.2382 S.O2    1  UNL1        0.0773
     11 O          64.7952   83.5805   15.3497 O.2     1  UNL1       -0.1498
     12 O          61.8069   83.7222   15.1267 O.2     1  UNL1       -0.1498
     13 N          63.2563   82.1886   14.9090 N.pl3   1  UNL1       -0.1925
     14 H          63.2438   81.5213   15.6327 H       1  UNL1        0.1758
     15 C          63.2306   81.7426   13.4771 C.ar    1  UNL1        0.1977
     16 N          63.8448   82.4679   12.3166 N.ar    1  UNL1       -0.1997
     17 C          63.5800   81.6667   11.0765 C.ar    1  UNL1        0.2082
     18 N          62.8021   80.4462   11.4704 N.ar    1  UNL1       -0.1840
     19 S          62.5862   80.4932   12.9541 S.2     1  UNL1        0.0508
     20 C          63.6273   90.5140   15.4574 C.3     1  UNL1        0.2058
     21 C          64.9916   90.8806   14.9534 C.3     1  UNL1        0.0514
     22 N          63.0153   91.5672    9.6182 N.3     1  UNL1       -0.3222
     23 C          63.7282   91.5287   10.9374 C.3     1  UNL1        0.0508
     24 C          63.1303   90.7799   12.0914 C.3     1  UNL1        0.0158
     25 C          63.8431   90.7414   13.4106 C.3     1  UNL1        0.0055
     26 C          65.1539   91.4516   13.5758 C.3     1  UNL1        0.0226
     27 C          65.7518   92.2004   12.4218 C.3     1  UNL1        0.0055
     28 C          65.0390   92.2389   11.1026 C.3     1  UNL1        0.0158
     29 H          62.1472   91.0359    9.6851 H       1  UNL1        0.1188
     30 H          63.6102   91.1572    8.8981 H       1  UNL1        0.1188
     31 C          66.4084   91.9636   14.2194 C.ar    1  UNL1       -0.0227
     32 C          66.3341   92.7098   15.5185 C.ar    1  UNL1       -0.0043
     33 C          67.5886   93.2218   16.1622 C.ar    1  UNL1       -0.0003
     34 C          68.9172   92.9875   15.5067 C.ar    1  UNL1       -0.0000
     35 C          68.9915   92.2413   14.2076 C.ar    1  UNL1       -0.0003
     36 C          67.7371   91.7294   13.5640 C.ar    1  UNL1       -0.0043
@<TRIPOS>BOND
     1    23    22    1
     2    23    24    1
     3    24    25    1
     4    25    26    1
     5    26    21    1
     6    21    20    1
     7    20     1    1
     8     1     2    1
     9     2     3   ar
    10     3     4   ar
    11     4     5    1
    12     4     6   ar
    13     6    10    1
    14    10    11    2
    15    10    12    2
    16    10    13    1
    17    13    15    1
    18    15    16   ar
    19    16    17   ar
    20    17    18   ar
    21    18    19   ar
    22     6     7   ar
    23     7     8   ar
    24     8     9    1
    25    26    31    1
    26    31    32   ar
    27    32    33   ar
    28    33    34   ar
    29    34    35   ar
    30    35    36   ar
    31    26    27    1
    32    27    28    1
    33    28    23    1
    34     8     2   ar
    35    36    31   ar
    36    19    15   ar
    37    22    29    1
    38    22    30    1
    39    13    14    1
@<TRIPOS>MOLECULE
*****
 36 39 0 0 0
SMALL
GASTEIGER

@<TRIPOS>ATOM
      1 O          64.1093   89.3702   15.8181 O.3     1  UNL1       -0.4731
      2 C          63.8347   87.9042   15.6594 C.ar    1  UNL1        0.1681
      3 C          64.1641   87.2149   14.3685 C.ar    1  UNL1        0.0702
      4 C          63.8894   85.7489   14.2097 C.ar    1  UNL1        0.1620
      5 F          64.2189   85.0596   12.9188 F       1  UNL1       -0.2026
      6 C          63.2854   84.9720   15.3418 C.ar    1  UNL1        0.1549
      7 C          62.9560   85.6613   16.6327 C.ar    1  UNL1        0.0553
      8 C          63.2306   87.1274   16.7915 C.ar    1  UNL1        0.1753
      9 F          62.9012   87.8166   18.0824 F       1  UNL1       -0.2009
     10 S          63.0108   83.5060   15.1830 S.O2    1  UNL1        0.0773
     11 O          64.4200   83.1974   15.5942 O.2     1  UNL1       -0.1498
     12 O          61.6016   83.8145   14.7719 O.2     1  UNL1       -0.1498
     13 N          62.7362   82.0399   15.0242 N.pl3   1  UNL1       -0.1925
     14 H          62.5248   81.4903   15.8133 H       1  UNL1        0.1758
     15 C          62.7836   81.4112   13.6632 C.ar    1  UNL1        0.1977
     16 N          63.2074   82.0882   12.3935 N.ar    1  UNL1       -0.1997
     17 C          63.1013   81.0906   11.2784 C.ar    1  UNL1        0.2082
     18 N          62.6118   79.7969   11.8589 N.ar    1  UNL1       -0.1840
     19 S          62.4155   79.9951   13.3328 S.2     1  UNL1        0.0508
     20 C          63.5500   90.3495   14.8292 C.3     1  UNL1        0.2058
     21 C          63.2899   89.9219   13.4152 C.3     1  UNL1        0.0514
     22 N          66.7909   93.9798   11.3857 N.3     1  UNL1       -0.3222
     23 C          65.7797   92.9123   11.6821 C.3     1  UNL1        0.0508
     24 C          65.6881   92.3280   13.0606 C.3     1  UNL1        0.0158
     25 C          64.6769   91.2605   13.3570 C.3     1  UNL1        0.0055
     26 C          63.7573   90.7772   12.2750 C.3     1  UNL1        0.0226
     27 C          63.8489   91.3615   10.8965 C.3     1  UNL1        0.0055
     28 C          64.8601   92.4291   10.6001 C.3     1  UNL1        0.0158
     29 H          67.3266   94.1843   12.2292 H       1  UNL1        0.1188
     30 H          66.3119   94.8246   11.0738 H       1  UNL1        0.1188
     31 C          62.6753   89.9970   11.5889 C.ar    1  UNL1       -0.0227
     32 C          62.7426   88.4991   11.5466 C.ar    1  UNL1       -0.0043
     33 C          61.6607   87.7188   10.8605 C.ar    1  UNL1       -0.0003
     34 C          60.5115   88.4365   10.2168 C.ar    1  UNL1       -0.0000
     35 C          60.4442   89.9344   10.2591 C.ar    1  UNL1       -0.0003
     36 C          61.5262   90.7146   10.9452 C.ar    1  UNL1       -0.0043
@<TRIPOS>BOND
     1    23    22    1
     2    23    24    1
     3    24    25    1
     4    25    26    1
     5    26    21    1
     6    21    20    1
     7    20     1    1
     8     1     2    1
     9     2     3   ar
    10     3     4   ar
    11     4     5    1
    12     4     6   ar
    13     6    10    1
    14    10    11    2
    15    10    12    2
    16    10    13    1
    17    13    15    1
    18    15    16   ar
    19    16    17   ar
    20    17    18   ar
    21    18    19   ar
    22     6     7   ar
    23     7     8   ar
    24     8     9    1
    25    26    31    1
    26    31    32   ar
    27    32    33   ar
    28    33    34   ar
    29    34    35   ar
    30    35    36   ar
    31    26    27    1
    32    27    28    1
    33    28    23    1
    34     8     2   ar
    35    36    31   ar
    36    19    15   ar
    37    22    29    1
    38    22    30    1
    39    13    14    1
@<TRIPOS>MOLECULE
*****
 36 39 0 0 0
SMALL
GASTEIGER

@<TRIPOS>ATOM
      1 O          60.9934   88.8152   12.0610 O.3     1  UNL1       -0.4731
      2 C          62.1567   89.7606   12.0091 C.ar    1  UNL1        0.1681
      3 C          63.1220   89.8256   13.1554 C.ar    1  UNL1        0.0702
      4 C          64.2854   90.7710   13.1034 C.ar    1  UNL1        0.1620
      5 F          65.2508   90.8361   14.2498 F       1  UNL1       -0.2026
      6 C          64.4836   91.6514   11.9052 C.ar    1  UNL1        0.1549
      7 C          63.5182   91.5863   10.7589 C.ar    1  UNL1        0.0553
      8 C          62.3549   90.6409   10.8108 C.ar    1  UNL1        0.1753
      9 F          61.3896   90.5759    9.6646 F       1  UNL1       -0.2009
     10 S          65.6470   92.5967   11.8533 S.O2    1  UNL1        0.0773
     11 O          65.3375   93.0543   13.2480 O.2     1  UNL1       -0.1498
     12 O          65.9565   92.1392   10.4588 O.2     1  UNL1       -0.1498
     13 N          66.8104   93.5422   11.8014 N.pl3   1  UNL1       -0.1925
     14 H          67.5551   93.4418   12.4375 H       1  UNL1        0.1758
     15 C          66.8392   94.6405   10.7802 C.ar    1  UNL1        0.1977
     16 N          67.7798   94.7373    9.6158 N.ar    1  UNL1       -0.1997
     17 C          67.4545   95.9915    8.8600 C.ar    1  UNL1        0.2082
     18 N          66.3127   96.6698    9.5573 N.ar    1  UNL1       -0.1840
     19 S          65.9324   95.8348   10.7440 S.2     1  UNL1        0.0508
     20 C          60.9691   87.6062   11.1735 C.3     1  UNL1        0.2058
     21 C          61.5608   86.3132   11.6509 C.3     1  UNL1        0.0514
     22 N          62.6506   84.6935    6.2629 N.3     1  UNL1       -0.3222
     23 C          62.5293   84.9357    7.7383 C.3     1  UNL1        0.0508
     24 C          61.6158   86.0101    8.2493 C.3     1  UNL1        0.0158
     25 C          61.4945   86.2523    9.7247 C.3     1  UNL1        0.0055
     26 C          62.2867   85.4201   10.6889 C.3     1  UNL1        0.0226
     27 C          63.2001   84.3457   10.1779 C.3     1  UNL1        0.0055
     28 C          63.3214   84.1035    8.7025 C.3     1  UNL1        0.0158
     29 H          62.0467   85.3444    5.7607 H       1  UNL1        0.1188
     30 H          62.3692   83.7362    6.0512 H       1  UNL1        0.1188
     31 C          62.8268   84.8980   11.9874 C.ar    1  UNL1       -0.0227
     32 C          63.4474   85.8412   12.9748 C.ar    1  UNL1       -0.0043
     33 C          63.9875   85.3192   14.2733 C.ar    1  UNL1       -0.0003
     34 C          63.9069   83.8539   14.5841 C.ar    1  UNL1       -0.0000
     35 C          63.2862   82.9107   13.5966 C.ar    1  UNL1       -0.0003
     36 C          62.7462   83.4329   12.2982 C.ar    1  UNL1       -0.0043
@<TRIPOS>BOND
     1    23    22    1
     2    23    24    1
     3    24    25    1
     4    25    26    1
     5    26    21    1
     6    21    20    1
     7    20     1    1
     8     1     2    1
     9     2     3   ar
    10     3     4   ar
    11     4     5    1
    12     4     6   ar
    13     6    10    1
    14    10    11    2
    15    10    12    2
    16    10    13    1
    17    13    15    1
    18    15    16   ar
    19    16    17   ar
    20    17    18   ar
    21    18    19   ar
    22     6     7   ar
    23     7     8   ar
    24     8     9    1
    25    26    31    1
    26    31    32   ar
    27    32    33   ar
    28    33    34   ar
    29    34    35   ar
    30    35    36   ar
    31    26    27    1
    32    27    28    1
    33    28    23    1
    34     8     2   ar
    35    36    31   ar
    36    19    15   ar
    37    22    29    1
    38    22    30    1
    39    13    14    1
@<TRIPOS>MOLECULE
*****
 36 39 0 0 0
SMALL
GASTEIGER

@<TRIPOS>ATOM
      1 O          62.6742   88.6886   12.7947 O.3     1  UNL1       -0.4731
      2 C          63.5278   89.8903   12.5168 C.ar    1  UNL1        0.1681
      3 C          64.5252   90.3538   13.5367 C.ar    1  UNL1        0.0702
      4 C          65.3788   91.5555   13.2589 C.ar    1  UNL1        0.1620
      5 F          66.3763   92.0191   14.2789 F       1  UNL1       -0.2026
      6 C          65.2350   92.2938   11.9611 C.ar    1  UNL1        0.1549
      7 C          64.2375   91.8303   10.9411 C.ar    1  UNL1        0.0553
      8 C          63.3839   90.6286   11.2190 C.ar    1  UNL1        0.1753
      9 F          62.3865   90.1650   10.1990 F       1  UNL1       -0.2009
     10 S          66.0885   93.4955   11.6833 S.O2    1  UNL1        0.0773
     11 O          65.8175   94.0080   13.0668 O.2     1  UNL1       -0.1498
     12 O          66.3595   92.9832   10.2998 O.2     1  UNL1       -0.1498
     13 N          66.9421   94.6973   11.4054 N.pl3   1  UNL1       -0.1925
     14 H          67.6514   94.9542   12.0380 H       1  UNL1        0.1758
     15 C          66.7149   95.5076   10.1638 C.ar    1  UNL1        0.1977
     16 N          67.7409   95.8208    9.1153 N.ar    1  UNL1       -0.1997
     17 C          67.0820   96.6538    8.0560 C.ar    1  UNL1        0.2082
     18 N          65.6488   96.8554    8.4498 N.ar    1  UNL1       -0.1840
     19 S          65.4219   96.1470    9.7524 S.2     1  UNL1        0.0508
     20 C          62.9384   87.3986   12.0762 C.3     1  UNL1        0.2058
     21 C          61.8075   86.4575   11.7843 C.3     1  UNL1        0.0514
     22 N          58.6760   88.0444    7.2546 N.3     1  UNL1       -0.3222
     23 C          59.5739   87.4388    8.2925 C.3     1  UNL1        0.0508
     24 C          59.6862   88.0708    9.6481 C.3     1  UNL1        0.0158
     25 C          60.5840   87.4652   10.6860 C.3     1  UNL1        0.0055
     26 C          61.3696   86.2275   10.3681 C.3     1  UNL1        0.0226
     27 C          61.2573   85.5955    9.0125 C.3     1  UNL1        0.0055
     28 C          60.3594   86.2011    7.9746 C.3     1  UNL1        0.0158
     29 H          58.2233   88.8737    7.6389 H       1  UNL1        0.1188
     30 H          57.9659   87.3652    6.9813 H       1  UNL1        0.1188
     31 C          62.3072   85.0697   10.5421 C.ar    1  UNL1       -0.0227
     32 C          62.3602   84.3375   11.8502 C.ar    1  UNL1       -0.0043
     33 C          63.2979   83.1797   12.0242 C.ar    1  UNL1       -0.0003
     34 C          64.1825   82.7541   10.8900 C.ar    1  UNL1       -0.0000
     35 C          64.1295   83.4863    9.5819 C.ar    1  UNL1       -0.0003
     36 C          63.1919   84.6441    9.4080 C.ar    1  UNL1       -0.0043
@<TRIPOS>BOND
     1    23    22    1
     2    23    24    1
     3    24    25    1
     4    25    26    1
     5    26    21    1
     6    21    20    1
     7    20     1    1
     8     1     2    1
     9     2     3   ar
    10     3     4   ar
    11     4     5    1
    12     4     6   ar
    13     6    10    1
    14    10    11    2
    15    10    12    2
    16    10    13    1
    17    13    15    1
    18    15    16   ar
    19    16    17   ar
    20    17    18   ar
    21    18    19   ar
    22     6     7   ar
    23     7     8   ar
    24     8     9    1
    25    26    31    1
    26    31    32   ar
    27    32    33   ar
    28    33    34   ar
    29    34    35   ar
    30    35    36   ar
    31    26    27    1
    32    27    28    1
    33    28    23    1
    34     8     2   ar
    35    36    31   ar
    36    19    15   ar
    37    22    29    1
    38    22    30    1
    39    13    14    1
@<TRIPOS>MOLECULE
*****
 36 39 0 0 0
SMALL
GASTEIGER

@<TRIPOS>ATOM
      1 O          60.9850   88.9161   12.1012 O.3     1  UNL1       -0.4731
      2 C          62.1598   89.8451   12.0188 C.ar    1  UNL1        0.1681
      3 C          63.1369   89.9212   13.1543 C.ar    1  UNL1        0.0702
      4 C          64.3117   90.8502   13.0719 C.ar    1  UNL1        0.1620
      5 F          65.2888   90.9263   14.2075 F       1  UNL1       -0.2026
      6 C          64.5095   91.7030   11.8539 C.ar    1  UNL1        0.1549
      7 C          63.5323   91.6269   10.7183 C.ar    1  UNL1        0.0553
      8 C          62.3576   90.6979   10.8007 C.ar    1  UNL1        0.1753
      9 F          61.3805   90.6218    9.6652 F       1  UNL1       -0.2009
     10 S          65.6843   92.6320   11.7715 S.O2    1  UNL1        0.0773
     11 O          65.3900   93.1271   13.1566 O.2     1  UNL1       -0.1498
     12 O          65.9786   92.1369   10.3865 O.2     1  UNL1       -0.1498
     13 N          66.8591   93.5610   11.6891 N.pl3   1  UNL1       -0.1925
     14 H          67.6143   93.4562   12.3120 H       1  UNL1        0.1758
     15 C          66.8833   94.6498   10.6576 C.ar    1  UNL1        0.1977
     16 N          67.8692   94.7785    9.5345 N.ar    1  UNL1       -0.1997
     17 C          67.5211   96.0092    8.7508 C.ar    1  UNL1        0.2082
     18 N          66.3201   96.6412    9.3895 N.ar    1  UNL1       -0.1840
     19 S          65.9259   95.8009   10.5680 S.2     1  UNL1        0.0508
     20 C          60.9646   87.6584   11.2841 C.3     1  UNL1        0.2058
     21 C          62.2428   87.1038   10.7289 C.3     1  UNL1        0.0514
     22 N          64.2575   83.1581   14.3641 N.3     1  UNL1       -0.3222
     23 C          63.7150   83.9997   13.2472 C.3     1  UNL1        0.0508
     24 C          63.4820   85.4663   13.4582 C.3     1  UNL1        0.0158
     25 C          62.9395   86.3079   12.3413 C.3     1  UNL1        0.0055
     26 C          62.6300   85.6828   11.0134 C.3     1  UNL1        0.0226
     27 C          62.8630   84.2161   10.8024 C.3     1  UNL1        0.0055
     28 C          63.4055   83.3746   11.9193 C.3     1  UNL1        0.0158
     29 H          64.4088   83.7417   15.1869 H       1  UNL1        0.1188
     30 H          65.1424   82.7404   14.0762 H       1  UNL1        0.1188
     31 C          62.1860   85.5511    9.5866 C.ar    1  UNL1       -0.0227
     32 C          60.8151   86.0066    9.1827 C.ar    1  UNL1       -0.0043
     33 C          60.3711   85.8749    7.7559 C.ar    1  UNL1       -0.0003
     34 C          61.2981   85.2878    6.7332 C.ar    1  UNL1       -0.0000
     35 C          62.6690   84.8323    7.1371 C.ar    1  UNL1       -0.0003
     36 C          63.1129   84.9640    8.5638 C.ar    1  UNL1       -0.0043
@<TRIPOS>BOND
     1    23    22    1
     2    23    24    1
     3    24    25    1
     4    25    26    1
     5    26    21    1
     6    21    20    1
     7    20     1    1
     8     1     2    1
     9     2     3   ar
    10     3     4   ar
    11     4     5    1
    12     4     6   ar
    13     6    10    1
    14    10    11    2
    15    10    12    2
    16    10    13    1
    17    13    15    1
    18    15    16   ar
    19    16    17   ar
    20    17    18   ar
    21    18    19   ar
    22     6     7   ar
    23     7     8   ar
    24     8     9    1
    25    26    31    1
    26    31    32   ar
    27    32    33   ar
    28    33    34   ar
    29    34    35   ar
    30    35    36   ar
    31    26    27    1
    32    27    28    1
    33    28    23    1
    34     8     2   ar
    35    36    31   ar
    36    19    15   ar
    37    22    29    1
    38    22    30    1
    39    13    14    1
@<TRIPOS>MOLECULE
*****
 36 39 0 0 0
SMALL
GASTEIGER

@<TRIPOS>ATOM
      1 O          61.3768   86.7317   11.2654 O.3     1  UNL1       -0.4731
      2 C          62.1520   87.9933   11.5052 C.ar    1  UNL1        0.1681
      3 C          63.0858   88.0888   12.6752 C.ar    1  UNL1        0.0702
      4 C          63.8610   89.3503   12.9151 C.ar    1  UNL1        0.1620
      5 F          64.7948   89.4458   14.0851 F       1  UNL1       -0.2026
      6 C          63.7024   90.5164   11.9850 C.ar    1  UNL1        0.1549
      7 C          62.7685   90.4209   10.8150 C.ar    1  UNL1        0.0553
      8 C          61.9934   89.1594   10.5751 C.ar    1  UNL1        0.1753
      9 F          61.0595   89.0639    9.4051 F       1  UNL1       -0.2009
     10 S          64.4775   91.7779   12.2249 S.O2    1  UNL1        0.0773
     11 O          64.9785   91.7389   10.8115 O.2     1  UNL1       -0.1498
     12 O          63.9766   91.8170   13.6382 O.2     1  UNL1       -0.1498
     13 N          65.2527   93.0395   12.4648 N.pl3   1  UNL1       -0.1925
     14 H          64.9857   93.8742   12.0162 H       1  UNL1        0.1758
     15 C          66.4348   93.0293   13.3881 C.ar    1  UNL1        0.1977
     16 N          66.6472   93.9429   14.5587 N.ar    1  UNL1       -0.1997
     17 C          67.9557   93.5820   15.1971 C.ar    1  UNL1        0.2082
     18 N          68.5520   92.4453   14.4211 N.ar    1  UNL1       -0.1840
     19 S          67.6120   92.1037   13.3031 S.2     1  UNL1        0.0508
     20 C          62.0831   85.4085   11.2518 C.3     1  UNL1        0.2058
     21 C          63.0444   85.0600   12.3492 C.3     1  UNL1        0.0514
     22 N          62.7492   79.3747   11.6920 N.3     1  UNL1       -0.3222
     23 C          62.8427   80.8118   12.1115 C.3     1  UNL1        0.0508
     24 C          62.8124   81.8984   11.0780 C.3     1  UNL1        0.0158
     25 C          62.9060   83.3355   11.4976 C.3     1  UNL1        0.0055
     26 C          63.0299   83.6860   12.9507 C.3     1  UNL1        0.0226
     27 C          63.0602   82.5994   13.9843 C.3     1  UNL1        0.0055
     28 C          62.9666   81.1623   13.5647 C.3     1  UNL1        0.0158
     29 H          62.6709   79.3215   10.6764 H       1  UNL1        0.1188
     30 H          61.9268   78.9487   12.1192 H       1  UNL1        0.1188
     31 C          63.1588   84.5137   14.1951 C.ar    1  UNL1       -0.0227
     32 C          62.0966   84.4490   15.2522 C.ar    1  UNL1       -0.0043
     33 C          62.2255   85.2767   16.4965 C.ar    1  UNL1       -0.0003
     34 C          63.4166   86.1690   16.6837 C.ar    1  UNL1       -0.0000
     35 C          64.4788   86.2336   15.6265 C.ar    1  UNL1       -0.0003
     36 C          64.3499   85.4059   14.3823 C.ar    1  UNL1       -0.0043
@<TRIPOS>BOND
     1    23    22    1
     2    23    24    1
     3    24    25    1
     4    25    26    1
     5    26    21    1
     6    21    20    1
     7    20     1    1
     8     1     2    1
     9     2     3   ar
    10     3     4   ar
    11     4     5    1
    12     4     6   ar
    13     6    10    1
    14    10    11    2
    15    10    12    2
    16    10    13    1
    17    13    15    1
    18    15    16   ar
    19    16    17   ar
    20    17    18   ar
    21    18    19   ar
    22     6     7   ar
    23     7     8   ar
    24     8     9    1
    25    26    31    1
    26    31    32   ar
    27    32    33   ar
    28    33    34   ar
    29    34    35   ar
    30    35    36   ar
    31    26    27    1
    32    27    28    1
    33    28    23    1
    34     8     2   ar
    35    36    31   ar
    36    19    15   ar
    37    22    29    1
    38    22    30    1
    39    13    14    1
@<TRIPOS>MOLECULE
*****
 36 39 0 0 0
SMALL
GASTEIGER

@<TRIPOS>ATOM
      1 O          62.9990   89.9998   11.1167 O.3     1  UNL1       -0.4731
      2 C          63.1082   88.6749   11.8113 C.ar    1  UNL1        0.1681
      3 C          63.7838   88.5819   13.1473 C.ar    1  UNL1        0.0702
      4 C          63.8930   87.2570   13.8419 C.ar    1  UNL1        0.1620
      5 F          64.5686   87.1640   15.1781 F       1  UNL1       -0.2026
      6 C          63.3267   86.0249   13.2006 C.ar    1  UNL1        0.1549
      7 C          62.6511   86.1179   11.8645 C.ar    1  UNL1        0.0553
      8 C          62.5419   87.4428   11.1699 C.ar    1  UNL1        0.1753
      9 F          61.8663   87.5358    9.8339 F       1  UNL1       -0.2009
     10 S          63.4359   84.7000   13.8953 S.O2    1  UNL1        0.0773
     11 O          62.0064   84.8130   14.3356 O.2     1  UNL1       -0.1498
     12 O          64.8653   84.5870   13.4549 O.2     1  UNL1       -0.1498
     13 N          63.5451   83.3750   14.5899 N.pl3   1  UNL1       -0.1925
     14 H          63.9053   83.3271   15.5049 H       1  UNL1        0.1758
     15 C          63.1055   82.1231   13.8904 C.ar    1  UNL1        0.1977
     16 N          62.2625   81.0324   14.4817 N.ar    1  UNL1       -0.1997
     17 C          62.0676   79.9772   13.4336 C.ar    1  UNL1        0.2082
     18 N          62.7903   80.4157   12.1944 N.ar    1  UNL1       -0.1840
     19 S          63.4317   81.7419   12.4768 S.2     1  UNL1        0.0508
     20 C          63.5043   91.2425   11.7878 C.3     1  UNL1        0.2058
     21 C          64.8649   91.7765   11.4510 C.3     1  UNL1        0.0514
     22 N          66.1214   92.6834   16.9683 N.3     1  UNL1       -0.3222
     23 C          65.9706   92.6199   15.4773 C.3     1  UNL1        0.0508
     24 C          64.9675   91.6885   14.8639 C.3     1  UNL1        0.0158
     25 C          64.8167   91.6250   13.3729 C.3     1  UNL1        0.0055
     26 C          65.6690   92.4929   12.4952 C.3     1  UNL1        0.0226
     27 C          66.6722   93.4242   13.1086 C.3     1  UNL1        0.0055
     28 C          66.8230   93.4877   14.5996 C.3     1  UNL1        0.0158
     29 H          65.4688   92.0318   17.4041 H       1  UNL1        0.1188
     30 H          65.9221   93.6305   17.2902 H       1  UNL1        0.1188
     31 C          66.2421   93.1119   11.2549 C.ar    1  UNL1       -0.0227
     32 C          65.7567   94.4541   10.7935 C.ar    1  UNL1       -0.0043
     33 C          66.3298   95.0732    9.5531 C.ar    1  UNL1       -0.0003
     34 C          67.3883   94.3500    8.7743 C.ar    1  UNL1       -0.0000
     35 C          67.8738   93.0078    9.2358 C.ar    1  UNL1       -0.0003
     36 C          67.3006   92.3889   10.4760 C.ar    1  UNL1       -0.0043
@<TRIPOS>BOND
     1    23    22    1
     2    23    24    1
     3    24    25    1
     4    25    26    1
     5    26    21    1
     6    21    20    1
     7    20     1    1
     8     1     2    1
     9     2     3   ar
    10     3     4   ar
    11     4     5    1
    12     4     6   ar
    13     6    10    1
    14    10    11    2
    15    10    12    2
    16    10    13    1
    17    13    15    1
    18    15    16   ar
    19    16    17   ar
    20    17    18   ar
    21    18    19   ar
    22     6     7   ar
    23     7     8   ar
    24     8     9    1
    25    26    31    1
    26    31    32   ar
    27    32    33   ar
    28    33    34   ar
    29    34    35   ar
    30    35    36   ar
    31    26    27    1
    32    27    28    1
    33    28    23    1
    34     8     2   ar
    35    36    31   ar
    36    19    15   ar
    37    22    29    1
    38    22    30    1
    39    13    14    1
@<TRIPOS>MOLECULE
*****
 36 39 0 0 0
SMALL
GASTEIGER

@<TRIPOS>ATOM
      1 O          61.6307   87.8699   11.6575 O.3     1  UNL1       -0.4731
      2 C          62.5750   89.0299   11.7694 C.ar    1  UNL1        0.1681
      3 C          63.4742   89.1525   12.9638 C.ar    1  UNL1        0.0702
      4 C          64.4185   90.3125   13.0758 C.ar    1  UNL1        0.1620
      5 F          65.3177   90.4350   14.2703 F       1  UNL1       -0.2026
      6 C          64.4638   91.3500   11.9935 C.ar    1  UNL1        0.1549
      7 C          63.5646   91.2274   10.7990 C.ar    1  UNL1        0.0553
      8 C          62.6203   90.0674   10.6870 C.ar    1  UNL1        0.1753
      9 F          61.7212   89.9449    9.4926 F       1  UNL1       -0.2009
     10 S          65.4081   92.5099   12.1055 S.O2    1  UNL1        0.0773
     11 O          65.0161   92.6904   13.5421 O.2     1  UNL1       -0.1498
     12 O          65.8002   92.3295   10.6689 O.2     1  UNL1       -0.1498
     13 N          66.3525   93.6700   12.2175 N.pl3   1  UNL1       -0.1925
     14 H          66.7936   93.8646   13.0759 H       1  UNL1        0.1758
     15 C          66.6248   94.5335   11.0216 C.ar    1  UNL1        0.1977
     16 N          67.6927   94.3043    9.9934 N.ar    1  UNL1       -0.1997
     17 C          67.6051   95.4069    8.9802 C.ar    1  UNL1        0.2082
     18 N          66.4829   96.3175    9.3821 N.ar    1  UNL1       -0.1840
     19 S          65.8772   95.7777   10.6438 S.2     1  UNL1        0.0508
     20 C          62.1575   86.5017   11.3407 C.3     1  UNL1        0.2058
     21 C          63.2299   85.8944   12.1957 C.3     1  UNL1        0.0514
     22 N          63.1960   80.5237   10.1966 N.3     1  UNL1       -0.3222
     23 C          63.2095   81.8214   10.9489 C.3     1  UNL1        0.0508
     24 C          63.1932   83.1218   10.2015 C.3     1  UNL1        0.0158
     25 C          63.2068   84.4194   10.9537 C.3     1  UNL1        0.0055
     26 C          63.2367   84.4167   12.4534 C.3     1  UNL1        0.0226
     27 C          63.2530   83.1163   13.2008 C.3     1  UNL1        0.0055
     28 C          63.2394   81.8186   12.4485 C.3     1  UNL1        0.0158
     29 H          63.1758   80.7119    9.1943 H       1  UNL1        0.1188
     30 H          62.3688   79.9875   10.4586 H       1  UNL1        0.1188
     31 C          63.2642   84.9271   13.8636 C.ar    1  UNL1       -0.0227
     32 C          64.2646   85.9706   14.2641 C.ar    1  UNL1       -0.0043
     33 C          64.2922   86.4811   15.6743 C.ar    1  UNL1       -0.0003
     34 C          63.3193   85.9480   16.6840 C.ar    1  UNL1       -0.0000
     35 C          62.3189   84.9046   16.2835 C.ar    1  UNL1       -0.0003
     36 C          62.2914   84.3942   14.8733 C.ar    1  UNL1       -0.0043
@<TRIPOS>BOND
     1    23    22    1
     2    23    24    1
     3    24    25    1
     4    25    26    1
     5    26    21    1
     6    21    20    1
     7    20     1    1
     8     1     2    1
     9     2     3   ar
    10     3     4   ar
    11     4     5    1
    12     4     6   ar
    13     6    10    1
    14    10    11    2
    15    10    12    2
    16    10    13    1
    17    13    15    1
    18    15    16   ar
    19    16    17   ar
    20    17    18   ar
    21    18    19   ar
    22     6     7   ar
    23     7     8   ar
    24     8     9    1
    25    26    31    1
    26    31    32   ar
    27    32    33   ar
    28    33    34   ar
    29    34    35   ar
    30    35    36   ar
    31    26    27    1
    32    27    28    1
    33    28    23    1
    34     8     2   ar
    35    36    31   ar
    36    19    15   ar
    37    22    29    1
    38    22    30    1
    39    13    14    1
