@<TRIPOS>MOLECULE
*****
 54 58 0 0 0
SMALL
GASTEIGER

@<TRIPOS>ATOM
      1 C          62.4320   87.8336   11.9703 C.2     1  UNL1        0.2404
      2 O          61.7461   88.2223   11.8522 O.2     1  UNL1       -0.2733
      3 N          63.7005   88.1575   12.7024 N.am    1  UNL1       -0.3026
      4 H          64.4403   87.5080   12.7164 H       1  UNL1        0.1495
      5 C          63.8419   89.4708   13.4132 C.3     1  UNL1        0.0958
      6 C          64.0205   89.5023   14.9022 C.3     1  UNL1        0.0476
      7 C          63.7305   88.2777   15.7184 C.ar    1  UNL1       -0.0205
      8 C          64.2124   86.9353   15.2538 C.ar    1  UNL1       -0.0042
      9 C          63.9224   85.7106   16.0701 C.ar    1  UNL1       -0.0003
     10 C          63.1505   85.8284   17.3508 C.ar    1  UNL1       -0.0000
     11 C          62.6686   87.1708   17.8153 C.ar    1  UNL1       -0.0003
     12 C          62.9586   88.3954   16.9992 C.ar    1  UNL1       -0.0042
     13 C          63.8046   90.7526   12.6350 C.3     1  UNL1        0.1168
     14 N          64.7716   91.8534   12.9564 N.am    1  UNL1       -0.2402
     15 C          65.2965   92.7339   11.8613 C.2     1  UNL1        0.4055
     16 O          64.8545   92.5136   10.4449 O.2     1  UNL1       -0.2262
     17 C          65.2136   92.0737   14.3727 C.3     1  UNL1        0.1235
     18 C          66.6571   92.3490   14.6736 C.ar    1  UNL1       -0.0022
     19 C          67.7321   91.6464   13.8985 C.ar    1  UNL1       -0.0026
     20 C          69.1756   91.9217   14.1995 C.ar    1  UNL1       -0.0003
     21 C          69.5441   92.8996   15.2755 C.ar    1  UNL1       -0.0000
     22 C          68.4692   93.6022   16.0506 C.ar    1  UNL1       -0.0003
     23 C          67.0256   93.3270   15.7497 C.ar    1  UNL1       -0.0026
     24 O          66.2635   93.8347   12.1825 O.3     1  UNL1       -0.4289
     25 C          66.0302   95.2172   11.6493 C.3     1  UNL1        0.2447
     26 C          66.4961   95.5775   10.2698 C.ar    1  UNL1        0.0714
     27 C          67.4884   94.8114    9.4461 C.ar    1  UNL1        0.1053
     28 N          67.6571   95.5276    8.1389 N.ar    1  UNL1       -0.2350
     29 C          66.7689   96.7364    8.1547 C.ar    1  UNL1        0.1343
     30 S          66.0514   96.7672    9.4716 S.2     1  UNL1       -0.0652
     31 C          62.2907   86.5203   11.2595 C.3     1  UNL1        0.1511
     32 N          61.0322   85.5646    7.6191 N.am    1  UNL1       -0.2567
     33 C          61.5163   84.8177    6.4118 C.3     1  UNL1        0.1168
     34 C          61.9035   85.6690    8.8356 C.2     1  UNL1        0.3046
     35 O          63.2589   85.0265    8.8448 O.2     1  UNL1       -0.2526
     36 N          61.4194   86.4159   10.0430 N.am    1  UNL1       -0.2824
     37 H          60.5298   86.8376   10.0370 H       1  UNL1        0.1514
     38 C          59.6768   86.2070    7.6099 C.3     1  UNL1        0.1413
     39 C          59.0843   89.8451    6.3939 C.ar    1  UNL1        0.0875
     40 N          59.0382   88.3633    6.1650 N.ar    1  UNL1       -0.2453
     41 C          59.5498   87.6872    7.4025 C.ar    1  UNL1        0.0858
     42 C          59.9120   88.7510    8.3960 C.ar    1  UNL1        0.0530
     43 S          59.6243   90.0847    7.7726 S.2     1  UNL1       -0.0705
     44 C          59.6985   91.7528    4.7406 C.3     1  UNL1        0.0069
     45 C          58.6641   90.9017    5.4156 C.3     1  UNL1        0.0465
     46 C          57.2095   91.1073    5.1124 C.3     1  UNL1        0.0069
     47 C          63.0207   85.3114   11.7652 C.3     1  UNL1        0.0463
     48 C          62.5022   84.5677   12.9602 C.3     1  UNL1        0.0745
     49 N          62.4930   83.0676   12.9641 N.3     1  UNL1       -0.2684
     50 C          62.0418   82.3235   14.1858 C.3     1  UNL1        0.1046
     51 C          62.0325   80.8236   14.1896 C.3     1  UNL1        0.1595
     52 O          62.4744   80.0678   12.9716 O.3     1  UNL1       -0.3508
     53 C          62.9256   80.8119   11.7499 C.3     1  UNL1        0.1595
     54 C          62.9349   82.3118   11.7461 C.3     1  UNL1        0.1046
@<TRIPOS>BOND
     1    44    45    1
     2    45    46    1
     3    45    39    1
     4    39    40   ar
     5    40    41   ar
     6    41    38    1
     7    38    32    1
     8    32    33    1
     9    32    34   am
    10    34    35    2
    11    34    36   am
    12    36    31    1
    13    31    47    1
    14    47    48    1
    15    48    49    1
    16    49    50    1
    17    50    51    1
    18    51    52    1
    19    52    53    1
    20    53    54    1
    21    31     1    1
    22     1     2    2
    23     1     3   am
    24     3     5    1
    25     5     6    1
    26     6     7    1
    27     7     8   ar
    28     8     9   ar
    29     9    10   ar
    30    10    11   ar
    31    11    12   ar
    32     5    13    1
    33    13    14    1
    34    14    17    1
    35    17    18    1
    36    18    19   ar
    37    19    20   ar
    38    20    21   ar
    39    21    22   ar
    40    22    23   ar
    41    14    15   am
    42    15    16    2
    43    15    24    1
    44    24    25    1
    45    25    26    1
    46    26    27   ar
    47    27    28   ar
    48    28    29   ar
    49    29    30   ar
    50    41    42   ar
    51    42    43   ar
    52    43    39   ar
    53    54    49    1
    54    12     7   ar
    55    23    18   ar
    56    30    26   ar
    57    36    37    1
    58     3     4    1
@<TRIPOS>MOLECULE
*****
 54 58 0 0 0
SMALL
GASTEIGER

@<TRIPOS>ATOM
      1 C          62.9679   89.3025   12.3257 C.2     1  UNL1        0.2404
      2 O          62.8331   89.8473   11.7595 O.2     1  UNL1       -0.2733
      3 N          62.7039   87.8303   12.4391 N.am    1  UNL1       -0.3026
      4 H          62.9627   87.3453   13.2558 H       1  UNL1        0.1495
      5 C          62.0456   87.0970   11.3081 C.3     1  UNL1        0.0958
      6 C          62.7806   85.9997   10.5970 C.3     1  UNL1        0.0476
      7 C          62.9435   84.6598   11.2511 C.ar    1  UNL1       -0.0205
      8 C          62.3975   84.4262   12.6285 C.ar    1  UNL1       -0.0042
      9 C          62.5604   83.0861   13.2826 C.ar    1  UNL1       -0.0003
     10 C          63.2693   81.9797   12.5593 C.ar    1  UNL1       -0.0000
     11 C          63.8154   82.2133   11.1819 C.ar    1  UNL1       -0.0003
     12 C          63.6525   83.5533   10.5278 C.ar    1  UNL1       -0.0042
     13 C          60.6523   87.4611   10.8883 C.3     1  UNL1        0.1168
     14 N          60.3018   87.5299    9.4314 N.am    1  UNL1       -0.2402
     15 C          60.3888   88.8366    8.7000 C.2     1  UNL1        0.4055
     16 O          60.8264   90.0745    9.4255 O.2     1  UNL1       -0.2262
     17 C          59.8643   86.2920    8.7060 C.3     1  UNL1        0.1235
     18 C          60.8042   85.6056    7.7598 C.ar    1  UNL1       -0.0022
     19 C          60.2635   84.8475    6.5837 C.ar    1  UNL1       -0.0026
     20 C          61.2034   84.1611    5.6375 C.ar    1  UNL1       -0.0003
     21 C          62.6839   84.2327    5.8672 C.ar    1  UNL1       -0.0000
     22 C          63.2246   84.9908    7.0432 C.ar    1  UNL1       -0.0003
     23 C          62.2848   85.6772    7.9895 C.ar    1  UNL1       -0.0026
     24 O          60.0384   88.9054    7.2432 O.3     1  UNL1       -0.4289
     25 C          58.8147   89.6517    6.8006 C.3     1  UNL1        0.2447
     26 C          58.9162   90.6820    5.7152 C.ar    1  UNL1        0.0714
     27 C          57.7706   91.4272    5.0970 C.ar    1  UNL1        0.1053
     28 N          58.3275   92.3538    4.0571 N.ar    1  UNL1       -0.2350
     29 C          59.8174   92.1812    4.0327 C.ar    1  UNL1        0.1343
     30 S          60.1812   91.1480    5.0574 S.2     1  UNL1       -0.0652
     31 C          63.6262   90.0356   13.4566 C.3     1  UNL1        0.1511
     32 N          66.7891   92.3649   14.0230 N.am    1  UNL1       -0.2567
     33 C          67.2799   93.3932   14.9984 C.3     1  UNL1        0.1168
     34 C          65.4530   91.7144   14.2275 C.2     1  UNL1        0.3046
     35 O          64.6077   92.0923   15.4076 O.2     1  UNL1       -0.2526
     36 N          64.9623   90.6861   13.2520 N.am    1  UNL1       -0.2824
     37 H          65.5170   90.4381   12.4775 H       1  UNL1        0.1514
     38 C          67.6344   91.9870   12.8429 C.3     1  UNL1        0.1413
     39 C          67.0405   94.5334    9.9743 C.ar    1  UNL1        0.0875
     40 N          66.9215   94.1310   11.4144 N.ar    1  UNL1       -0.2453
     41 C          67.5360   92.7712   11.5680 C.ar    1  UNL1        0.0858
     42 C          68.0348   92.3333   10.2228 C.ar    1  UNL1        0.0530
     43 S          67.7286   93.4224    9.2378 S.2     1  UNL1       -0.0705
     44 C          67.2649   96.4109    8.1926 C.3     1  UNL1        0.0069
     45 C          66.5565   95.8208    9.3758 C.3     1  UNL1        0.0465
     46 C          65.3640   96.5181    9.9604 C.3     1  UNL1        0.0069
     47 C          62.9484   90.1184   14.7923 C.3     1  UNL1        0.0463
     48 C          63.5300   89.4009   15.9742 C.3     1  UNL1        0.0745
     49 N          63.6094   87.9030   15.9777 N.3     1  UNL1       -0.2684
     50 C          62.7711   87.1098   16.9358 C.3     1  UNL1        0.1046
     51 C          62.8505   85.6119   16.9393 C.3     1  UNL1        0.1595
     52 O          63.7682   84.9073   15.9846 O.3     1  UNL1       -0.3508
     53 C          64.6065   85.7005   15.0265 C.3     1  UNL1        0.1595
     54 C          64.5270   87.1984   15.0230 C.3     1  UNL1        0.1046
@<TRIPOS>BOND
     1    44    45    1
     2    45    46    1
     3    45    39    1
     4    39    40   ar
     5    40    41   ar
     6    41    38    1
     7    38    32    1
     8    32    33    1
     9    32    34   am
    10    34    35    2
    11    34    36   am
    12    36    31    1
    13    31    47    1
    14    47    48    1
    15    48    49    1
    16    49    50    1
    17    50    51    1
    18    51    52    1
    19    52    53    1
    20    53    54    1
    21    31     1    1
    22     1     2    2
    23     1     3   am
    24     3     5    1
    25     5     6    1
    26     6     7    1
    27     7     8   ar
    28     8     9   ar
    29     9    10   ar
    30    10    11   ar
    31    11    12   ar
    32     5    13    1
    33    13    14    1
    34    14    17    1
    35    17    18    1
    36    18    19   ar
    37    19    20   ar
    38    20    21   ar
    39    21    22   ar
    40    22    23   ar
    41    14    15   am
    42    15    16    2
    43    15    24    1
    44    24    25    1
    45    25    26    1
    46    26    27   ar
    47    27    28   ar
    48    28    29   ar
    49    29    30   ar
    50    41    42   ar
    51    42    43   ar
    52    43    39   ar
    53    54    49    1
    54    12     7   ar
    55    23    18   ar
    56    30    26   ar
    57    36    37    1
    58     3     4    1
@<TRIPOS>MOLECULE
*****
 54 58 0 0 0
SMALL
GASTEIGER

@<TRIPOS>ATOM
      1 C          63.4594   87.9748   12.7813 C.2     1  UNL1        0.2404
      2 O          63.7239   88.5284   12.2724 O.2     1  UNL1       -0.2733
      3 N          62.5047   86.8237   12.6650 N.am    1  UNL1       -0.3026
      4 H          62.3221   86.2547   13.4473 H       1  UNL1        0.1495
      5 C          61.8281   86.5396   11.3567 C.3     1  UNL1        0.0958
      6 C          62.5633   85.8029   10.2765 C.3     1  UNL1        0.0476
      7 C          62.9295   84.3610   10.4679 C.ar    1  UNL1       -0.0205
      8 C          62.2021   83.5308   11.4835 C.ar    1  UNL1       -0.0042
      9 C          62.5684   82.0888   11.6749 C.ar    1  UNL1       -0.0003
     10 C          63.6622   81.4771   10.8506 C.ar    1  UNL1       -0.0000
     11 C          64.3896   82.3073    9.8350 C.ar    1  UNL1       -0.0003
     12 C          64.0234   83.7492    9.6436 C.ar    1  UNL1       -0.0042
     13 C          60.4163   86.9924   11.1285 C.3     1  UNL1        0.1168
     14 N          60.1443   88.2073   10.2918 N.am    1  UNL1       -0.2402
     15 C          59.8263   88.0578    8.8336 C.2     1  UNL1        0.4055
     16 O          59.7805   86.6933    8.2120 O.2     1  UNL1       -0.2262
     17 C          60.1901   89.5716   10.9134 C.3     1  UNL1        0.1235
     18 C          61.4840   90.3285   10.9664 C.ar    1  UNL1       -0.0022
     19 C          61.9746   90.8851   12.2701 C.ar    1  UNL1       -0.0026
     20 C          63.2685   91.6420   12.3231 C.ar    1  UNL1       -0.0003
     21 C          64.0719   91.8424   11.0723 C.ar    1  UNL1       -0.0000
     22 C          63.5814   91.2858    9.7687 C.ar    1  UNL1       -0.0003
     23 C          62.2875   90.5289    9.7156 C.ar    1  UNL1       -0.0026
     24 O          59.5542   89.2726    7.9969 O.3     1  UNL1       -0.4289
     25 C          59.2894   89.1274    6.5276 C.3     1  UNL1        0.2447
     26 C          59.0630   90.3456    5.6823 C.ar    1  UNL1        0.0714
     27 C          57.7364   90.9820    5.3901 C.ar    1  UNL1        0.1053
     28 N          57.9770   92.1712    4.5080 N.ar    1  UNL1       -0.2350
     29 C          59.4523   92.2697    4.2550 C.ar    1  UNL1        0.1343
     30 S          60.1234   91.1416    4.9807 S.2     1  UNL1       -0.0652
     31 C          64.1359   88.2588   14.0895 C.3     1  UNL1        0.1511
     32 N          65.6711   91.7018   15.3299 N.am    1  UNL1       -0.2567
     33 C          65.3639   92.7911   16.3142 C.3     1  UNL1        0.1168
     34 C          64.7499   90.5250   15.2019 C.2     1  UNL1        0.3046
     35 O          63.5214   90.4375   16.0581 O.2     1  UNL1       -0.2526
     36 N          65.0571   89.4356   14.2176 N.am    1  UNL1       -0.2824
     37 H          65.8634   89.4930   13.6556 H       1  UNL1        0.1514
     38 C          66.8996   91.7893   14.4737 C.3     1  UNL1        0.1413
     39 C          67.2778   93.3741   10.9508 C.ar    1  UNL1        0.0875
     40 N          67.5488   92.2660   11.9249 N.ar    1  UNL1       -0.2453
     41 C          66.8848   92.6176   13.2232 C.ar    1  UNL1        0.0858
     42 C          66.2035   93.9428   13.0515 C.ar    1  UNL1        0.0530
     43 S          66.4464   94.4104   11.6471 S.2     1  UNL1       -0.0705
     44 C          67.3836   94.6022    8.6638 C.3     1  UNL1        0.0069
     45 C          67.7546   93.4350    9.5299 C.3     1  UNL1        0.0465
     46 C          68.6023   92.3289    8.9751 C.3     1  UNL1        0.0069
     47 C          63.8912   87.3659   15.2698 C.3     1  UNL1        0.0463
     48 C          64.6891   86.1067   15.4359 C.3     1  UNL1        0.0745
     49 N          64.0405   84.7728   15.2122 N.3     1  UNL1       -0.2684
     50 C          64.8301   83.6454   14.6159 C.3     1  UNL1        0.1046
     51 C          64.1814   82.3116   14.3922 C.3     1  UNL1        0.1595
     52 O          62.7432   82.1051   14.7648 O.3     1  UNL1       -0.3508
     53 C          61.9536   83.2324   15.3611 C.3     1  UNL1        0.1595
     54 C          62.6022   84.5662   15.5848 C.3     1  UNL1        0.1046
@<TRIPOS>BOND
     1    44    45    1
     2    45    46    1
     3    45    39    1
     4    39    40   ar
     5    40    41   ar
     6    41    38    1
     7    38    32    1
     8    32    33    1
     9    32    34   am
    10    34    35    2
    11    34    36   am
    12    36    31    1
    13    31    47    1
    14    47    48    1
    15    48    49    1
    16    49    50    1
    17    50    51    1
    18    51    52    1
    19    52    53    1
    20    53    54    1
    21    31     1    1
    22     1     2    2
    23     1     3   am
    24     3     5    1
    25     5     6    1
    26     6     7    1
    27     7     8   ar
    28     8     9   ar
    29     9    10   ar
    30    10    11   ar
    31    11    12   ar
    32     5    13    1
    33    13    14    1
    34    14    17    1
    35    17    18    1
    36    18    19   ar
    37    19    20   ar
    38    20    21   ar
    39    21    22   ar
    40    22    23   ar
    41    14    15   am
    42    15    16    2
    43    15    24    1
    44    24    25    1
    45    25    26    1
    46    26    27   ar
    47    27    28   ar
    48    28    29   ar
    49    29    30   ar
    50    41    42   ar
    51    42    43   ar
    52    43    39   ar
    53    54    49    1
    54    12     7   ar
    55    23    18   ar
    56    30    26   ar
    57    36    37    1
    58     3     4    1
@<TRIPOS>MOLECULE
*****
 54 58 0 0 0
SMALL
GASTEIGER

@<TRIPOS>ATOM
      1 C          62.5849   88.7744   11.7978 C.2     1  UNL1        0.2404
      2 O          63.2628   88.7530   11.3788 O.2     1  UNL1       -0.2733
      3 N          62.1637   89.4591   13.0641 N.am    1  UNL1       -0.3026
      4 H          61.2488   89.3397   13.4074 H       1  UNL1        0.1495
      5 C          63.1366   90.3256   13.8075 C.3     1  UNL1        0.0958
      6 C          63.5679   89.9501   15.1942 C.3     1  UNL1        0.0476
      7 C          63.6332   88.5059   15.5940 C.ar    1  UNL1       -0.0205
      8 C          62.9203   88.0361   16.8273 C.ar    1  UNL1       -0.0042
      9 C          62.9856   86.5918   17.2271 C.ar    1  UNL1       -0.0003
     10 C          63.7637   85.6173   16.3936 C.ar    1  UNL1       -0.0000
     11 C          64.4766   86.0871   15.1602 C.ar    1  UNL1       -0.0003
     12 C          64.4114   87.5313   14.7604 C.ar    1  UNL1       -0.0042
     13 C          63.6781   91.5678   13.1642 C.3     1  UNL1        0.1168
     14 N          65.1242   91.6399   12.7720 N.am    1  UNL1       -0.2402
     15 C          65.5249   92.3463   11.5109 C.2     1  UNL1        0.4055
     16 O          64.4795   92.9805   10.6419 O.2     1  UNL1       -0.2262
     17 C          66.1695   91.0057   13.6410 C.3     1  UNL1        0.1235
     18 C          67.1463   91.8650   14.3875 C.ar    1  UNL1       -0.0022
     19 C          68.5906   91.8842   13.9826 C.ar    1  UNL1       -0.0026
     20 C          69.5674   92.7435   14.7292 C.ar    1  UNL1       -0.0003
     21 C          69.1001   93.5835   15.8807 C.ar    1  UNL1       -0.0000
     22 C          67.6560   93.5643   16.2856 C.ar    1  UNL1       -0.0003
     23 C          66.6790   92.7050   15.5391 C.ar    1  UNL1       -0.0026
     24 O          66.9709   92.4185   11.1187 O.3     1  UNL1       -0.4289
     25 C          67.3604   93.0049    9.7941 C.3     1  UNL1        0.2447
     26 C          67.2354   94.4815    9.5618 C.ar    1  UNL1        0.0714
     27 C          66.9042   95.5125   10.5998 C.ar    1  UNL1        0.1053
     28 N          66.8837   96.8546    9.9301 N.ar    1  UNL1       -0.2350
     29 C          67.2023   96.6530    8.4781 C.ar    1  UNL1        0.1343
     30 S          67.4196   95.1864    8.2505 S.2     1  UNL1       -0.0652
     31 C          61.6120   87.9078   11.0544 C.3     1  UNL1        0.1511
     32 N          59.7054   88.1766    7.5842 N.am    1  UNL1       -0.2567
     33 C          59.3702   87.3126    6.4047 C.3     1  UNL1        0.1168
     34 C          60.4911   87.6102    8.7296 C.2     1  UNL1        0.3046
     35 O          60.9415   86.1799    8.6956 O.2     1  UNL1       -0.2526
     36 N          60.8263   88.4742    9.9090 N.am    1  UNL1       -0.2824
     37 H          60.5307   89.4130    9.9314 H       1  UNL1        0.1514
     38 C          59.2550   89.6069    7.6182 C.3     1  UNL1        0.1413
     39 C          59.9474   91.6320    4.3801 C.ar    1  UNL1        0.0875
     40 N          60.4312   90.8432    5.5607 N.ar    1  UNL1       -0.2453
     41 C          59.2328   90.4165    6.3557 C.ar    1  UNL1        0.0858
     42 C          58.0084   90.9415    5.6663 C.ar    1  UNL1        0.0530
     43 S          58.4500   91.6927    4.4454 S.2     1  UNL1       -0.0705
     44 C          60.2296   93.2656    2.3798 C.3     1  UNL1        0.0069
     45 C          60.8096   92.2513    3.3204 C.3     1  UNL1        0.0465
     46 C          62.2517   91.8562    3.2012 C.3     1  UNL1        0.0069
     47 C          61.4247   86.4749   11.4565 C.3     1  UNL1        0.0463
     48 C          62.5030   85.7625   12.2179 C.3     1  UNL1        0.0745
     49 N          62.9073   84.3730   11.8229 N.3     1  UNL1       -0.2684
     50 C          62.6815   83.2293   12.7668 C.3     1  UNL1        0.1046
     51 C          63.0857   81.8399   12.3718 C.3     1  UNL1        0.1595
     52 O          63.7157   81.5941   11.0329 O.3     1  UNL1       -0.3508
     53 C          63.9415   82.7378   10.0890 C.3     1  UNL1        0.1595
     54 C          63.5372   84.1272   10.4840 C.3     1  UNL1        0.1046
@<TRIPOS>BOND
     1    44    45    1
     2    45    46    1
     3    45    39    1
     4    39    40   ar
     5    40    41   ar
     6    41    38    1
     7    38    32    1
     8    32    33    1
     9    32    34   am
    10    34    35    2
    11    34    36   am
    12    36    31    1
    13    31    47    1
    14    47    48    1
    15    48    49    1
    16    49    50    1
    17    50    51    1
    18    51    52    1
    19    52    53    1
    20    53    54    1
    21    31     1    1
    22     1     2    2
    23     1     3   am
    24     3     5    1
    25     5     6    1
    26     6     7    1
    27     7     8   ar
    28     8     9   ar
    29     9    10   ar
    30    10    11   ar
    31    11    12   ar
    32     5    13    1
    33    13    14    1
    34    14    17    1
    35    17    18    1
    36    18    19   ar
    37    19    20   ar
    38    20    21   ar
    39    21    22   ar
    40    22    23   ar
    41    14    15   am
    42    15    16    2
    43    15    24    1
    44    24    25    1
    45    25    26    1
    46    26    27   ar
    47    27    28   ar
    48    28    29   ar
    49    29    30   ar
    50    41    42   ar
    51    42    43   ar
    52    43    39   ar
    53    54    49    1
    54    12     7   ar
    55    23    18   ar
    56    30    26   ar
    57    36    37    1
    58     3     4    1
@<TRIPOS>MOLECULE
*****
 54 58 0 0 0
SMALL
GASTEIGER

@<TRIPOS>ATOM
      1 C          61.7102   88.6475   11.1582 C.2     1  UNL1        0.2404
      2 O          61.1461   89.1640   11.3828 O.2     1  UNL1       -0.2733
      3 N          63.0098   88.1981   11.7573 N.am    1  UNL1       -0.3026
      4 H          63.5617   87.5294   11.2910 H       1  UNL1        0.1495
      5 C          63.4686   88.7677   13.0670 C.3     1  UNL1        0.0958
      6 C          64.3526   87.9578   13.9686 C.3     1  UNL1        0.0476
      7 C          63.8357   87.4786   15.2926 C.ar    1  UNL1       -0.0205
      8 C          63.8041   86.0105   15.5986 C.ar    1  UNL1       -0.0042
      9 C          63.2872   85.5313   16.9227 C.ar    1  UNL1       -0.0003
     10 C          62.8020   86.5202   17.9408 C.ar    1  UNL1       -0.0000
     11 C          62.8336   87.9883   17.6349 C.ar    1  UNL1       -0.0003
     12 C          63.3504   88.4675   16.3108 C.ar    1  UNL1       -0.0042
     13 C          63.0435   90.1470   13.4751 C.3     1  UNL1        0.1168
     14 N          64.0611   91.2435   13.5861 N.am    1  UNL1       -0.2402
     15 C          64.4807   92.0038   12.3630 C.2     1  UNL1        0.4055
     16 O          63.8827   91.6677   11.0290 O.2     1  UNL1       -0.2262
     17 C          64.6592   91.5795   14.9200 C.3     1  UNL1        0.1235
     18 C          66.1050   91.9667   15.0176 C.ar    1  UNL1       -0.0022
     19 C          67.1247   91.2816   14.1567 C.ar    1  UNL1       -0.0026
     20 C          68.5705   91.6688   14.2542 C.ar    1  UNL1       -0.0003
     21 C          68.9968   92.7410   15.2127 C.ar    1  UNL1       -0.0000
     22 C          67.9772   93.4261   16.0735 C.ar    1  UNL1       -0.0003
     23 C          66.5313   93.0390   15.9760 C.ar    1  UNL1       -0.0026
     24 O          65.4984   93.1002   12.4739 O.3     1  UNL1       -0.4289
     25 C          65.7625   93.9996   11.3028 C.3     1  UNL1        0.2447
     26 C          66.8020   93.6245   10.2886 C.ar    1  UNL1        0.0714
     27 C          67.1893   94.4297    9.0838 C.ar    1  UNL1        0.1053
     28 N          68.2634   93.6811    8.3515 N.ar    1  UNL1       -0.2350
     29 C          68.5398   92.4132    9.1039 C.ar    1  UNL1        0.1343
     30 S          67.6367   92.3781   10.3010 S.2     1  UNL1       -0.0652
     31 C          61.2515   88.0780    9.8486 C.3     1  UNL1        0.1511
     32 N          59.5606   89.7508    6.6717 N.am    1  UNL1       -0.2567
     33 C          58.3175   89.6121    5.8438 C.3     1  UNL1        0.1168
     34 C          59.7845   88.8450    7.8462 C.2     1  UNL1        0.3046
     35 O          58.7653   87.8005    8.1928 O.2     1  UNL1       -0.2526
     36 N          61.0276   88.9837    8.6741 N.am    1  UNL1       -0.2824
     37 H          61.6966   89.6693    8.4465 H       1  UNL1        0.1514
     38 C          60.5798   90.7953    6.3250 C.3     1  UNL1        0.1413
     39 C          61.2054   92.2840    2.7954 C.ar    1  UNL1        0.0875
     40 N          61.6794   91.5286    4.0016 N.ar    1  UNL1       -0.2453
     41 C          60.5452   91.4601    4.9809 C.ar    1  UNL1        0.0858
     42 C          59.3702   92.1731    4.3799 C.ar    1  UNL1        0.0530
     43 S          59.7783   92.6823    3.0292 S.2     1  UNL1       -0.0705
     44 C          61.3553   92.6281    0.2247 C.3     1  UNL1        0.0069
     45 C          62.0162   92.5877    1.5706 C.3     1  UNL1        0.0465
     46 C          63.4880   92.8510    1.6916 C.3     1  UNL1        0.0069
     47 C          61.0167   86.6026    9.7134 C.3     1  UNL1        0.0463
     48 C          62.1351   85.7017    9.2807 C.3     1  UNL1        0.0745
     49 N          62.7618   84.7585   10.2645 N.3     1  UNL1       -0.2684
     50 C          63.7426   83.7260    9.7935 C.3     1  UNL1        0.1046
     51 C          64.3692   82.7828   10.7772 C.3     1  UNL1        0.1595
     52 O          64.0150   82.8722   12.2321 O.3     1  UNL1       -0.3508
     53 C          63.0342   83.9048   12.7032 C.3     1  UNL1        0.1595
     54 C          62.4076   84.8479   11.7194 C.3     1  UNL1        0.1046
@<TRIPOS>BOND
     1    44    45    1
     2    45    46    1
     3    45    39    1
     4    39    40   ar
     5    40    41   ar
     6    41    38    1
     7    38    32    1
     8    32    33    1
     9    32    34   am
    10    34    35    2
    11    34    36   am
    12    36    31    1
    13    31    47    1
    14    47    48    1
    15    48    49    1
    16    49    50    1
    17    50    51    1
    18    51    52    1
    19    52    53    1
    20    53    54    1
    21    31     1    1
    22     1     2    2
    23     1     3   am
    24     3     5    1
    25     5     6    1
    26     6     7    1
    27     7     8   ar
    28     8     9   ar
    29     9    10   ar
    30    10    11   ar
    31    11    12   ar
    32     5    13    1
    33    13    14    1
    34    14    17    1
    35    17    18    1
    36    18    19   ar
    37    19    20   ar
    38    20    21   ar
    39    21    22   ar
    40    22    23   ar
    41    14    15   am
    42    15    16    2
    43    15    24    1
    44    24    25    1
    45    25    26    1
    46    26    27   ar
    47    27    28   ar
    48    28    29   ar
    49    29    30   ar
    50    41    42   ar
    51    42    43   ar
    52    43    39   ar
    53    54    49    1
    54    12     7   ar
    55    23    18   ar
    56    30    26   ar
    57    36    37    1
    58     3     4    1
@<TRIPOS>MOLECULE
*****
 54 58 0 0 0
SMALL
GASTEIGER

@<TRIPOS>ATOM
      1 C          62.8874   89.5872   11.1212 C.2     1  UNL1        0.2404
      2 O          62.9966   89.8523   10.3773 O.2     1  UNL1       -0.2733
      3 N          62.3403   88.3187   11.7056 N.am    1  UNL1       -0.3026
      4 H          62.2988   88.2046   12.6826 H       1  UNL1        0.1495
      5 C          61.8565   87.2239   10.8014 C.3     1  UNL1        0.0958
      6 C          62.8235   86.2078   10.2699 C.3     1  UNL1        0.0476
      7 C          62.9231   84.8577   10.9158 C.ar    1  UNL1       -0.0205
      8 C          62.3178   84.6270   12.2687 C.ar    1  UNL1       -0.0042
      9 C          62.4175   83.2768   12.9146 C.ar    1  UNL1       -0.0003
     10 C          63.1224   82.1574   12.2076 C.ar    1  UNL1       -0.0000
     11 C          63.7278   82.3881   10.8547 C.ar    1  UNL1       -0.0003
     12 C          63.6281   83.7382   10.2088 C.ar    1  UNL1       -0.0042
     13 C          60.4057   87.1453   10.4288 C.3     1  UNL1        0.1168
     14 N          59.9927   87.2672    8.9918 N.am    1  UNL1       -0.2402
     15 C          59.8983   88.6201    8.3509 C.2     1  UNL1        0.4055
     16 O          60.2169   89.8510    9.1468 O.2     1  UNL1       -0.2262
     17 C          59.6741   86.0364    8.1960 C.3     1  UNL1        0.1235
     18 C          60.7286   85.4059    7.3355 C.ar    1  UNL1       -0.0022
     19 C          60.3326   84.5860    6.1434 C.ar    1  UNL1       -0.0026
     20 C          61.3871   83.9556    5.2829 C.ar    1  UNL1       -0.0003
     21 C          62.8377   84.1449    5.6144 C.ar    1  UNL1       -0.0000
     22 C          63.2338   84.9647    6.8064 C.ar    1  UNL1       -0.0003
     23 C          62.1792   85.5953    7.6670 C.ar    1  UNL1       -0.0026
     24 O          59.4854   88.7421    6.9140 O.3     1  UNL1       -0.4289
     25 C          58.5461   89.8334    6.4936 C.3     1  UNL1        0.2447
     26 C          58.9744   90.8362    5.4637 C.ar    1  UNL1        0.0714
     27 C          58.0844   91.8284    4.7756 C.ar    1  UNL1        0.1053
     28 N          58.9279   92.6283    3.8275 N.ar    1  UNL1       -0.2350
     29 C          60.3392   92.1304    3.9296 C.ar    1  UNL1        0.1343
     30 S          60.3679   91.0228    4.9408 S.2     1  UNL1       -0.0652
     31 C          63.3712   90.6819   12.0253 C.3     1  UNL1        0.1511
     32 N          64.0306   91.1310   15.9129 N.am    1  UNL1       -0.2567
     33 C          64.9741   91.8554   16.8267 C.3     1  UNL1        0.1168
     34 C          64.1727   91.2686   14.4260 C.2     1  UNL1        0.3046
     35 O          65.2582   92.1307   13.8529 O.2     1  UNL1       -0.2526
     36 N          63.2292   90.5442   13.5122 N.am    1  UNL1       -0.2824
     37 H          62.5167   89.9784   13.8884 H       1  UNL1        0.1514
     38 C          62.9451   90.2689   16.4861 C.3     1  UNL1        0.1413
     39 C          63.7648   86.5019   16.0355 C.ar    1  UNL1        0.0875
     40 N          63.7960   87.9177   15.5410 N.ar    1  UNL1       -0.2453
     41 C          63.1338   88.7833   16.5717 C.ar    1  UNL1        0.0858
     42 C          62.6934   87.9024   17.7031 C.ar    1  UNL1        0.0530
     43 S          63.0834   86.4924   17.3717 S.2     1  UNL1       -0.0705
     44 C          65.4126   85.4767   14.3082 C.3     1  UNL1        0.0069
     45 C          64.3180   85.3056   15.3194 C.3     1  UNL1        0.0465
     46 C          63.7766   83.9382   15.6144 C.3     1  UNL1        0.0069
     47 C          63.9971   91.9143   11.4426 C.3     1  UNL1        0.0463
     48 C          65.4265   91.8866   10.9887 C.3     1  UNL1        0.0745
     49 N          66.1095   93.1591   10.5832 N.3     1  UNL1       -0.2684
     50 C          65.6509   94.4700   11.1500 C.3     1  UNL1        0.1046
     51 C          66.3338   95.7424   10.7445 C.3     1  UNL1        0.1595
     52 O          67.4754   95.7040    9.7722 O.3     1  UNL1       -0.3508
     53 C          67.9339   94.3931    9.2054 C.3     1  UNL1        0.1595
     54 C          67.2510   93.1207    9.6109 C.3     1  UNL1        0.1046
@<TRIPOS>BOND
     1    44    45    1
     2    45    46    1
     3    45    39    1
     4    39    40   ar
     5    40    41   ar
     6    41    38    1
     7    38    32    1
     8    32    33    1
     9    32    34   am
    10    34    35    2
    11    34    36   am
    12    36    31    1
    13    31    47    1
    14    47    48    1
    15    48    49    1
    16    49    50    1
    17    50    51    1
    18    51    52    1
    19    52    53    1
    20    53    54    1
    21    31     1    1
    22     1     2    2
    23     1     3   am
    24     3     5    1
    25     5     6    1
    26     6     7    1
    27     7     8   ar
    28     8     9   ar
    29     9    10   ar
    30    10    11   ar
    31    11    12   ar
    32     5    13    1
    33    13    14    1
    34    14    17    1
    35    17    18    1
    36    18    19   ar
    37    19    20   ar
    38    20    21   ar
    39    21    22   ar
    40    22    23   ar
    41    14    15   am
    42    15    16    2
    43    15    24    1
    44    24    25    1
    45    25    26    1
    46    26    27   ar
    47    27    28   ar
    48    28    29   ar
    49    29    30   ar
    50    41    42   ar
    51    42    43   ar
    52    43    39   ar
    53    54    49    1
    54    12     7   ar
    55    23    18   ar
    56    30    26   ar
    57    36    37    1
    58     3     4    1
@<TRIPOS>MOLECULE
*****
 54 58 0 0 0
SMALL
GASTEIGER

@<TRIPOS>ATOM
      1 C          63.4933   90.7086   13.8522 C.2     1  UNL1        0.2404
      2 O          62.7641   91.0060   13.9763 O.2     1  UNL1       -0.2733
      3 N          64.4232   90.6864   12.6755 N.am    1  UNL1       -0.3026
      4 H          65.3021   90.2492   12.7509 H       1  UNL1        0.1495
      5 C          64.0142   91.3304   11.3840 C.3     1  UNL1        0.0958
      6 C          64.3143   92.7797   11.1405 C.3     1  UNL1        0.0476
      7 C          65.6311   93.1834   10.5462 C.ar    1  UNL1       -0.0205
      8 C          66.6947   92.1524   10.3097 C.ar    1  UNL1       -0.0042
      9 C          68.0115   92.5561    9.7154 C.ar    1  UNL1       -0.0003
     10 C          68.2647   93.9907    9.3577 C.ar    1  UNL1       -0.0000
     11 C          67.2011   95.0216    9.5943 C.ar    1  UNL1       -0.0003
     12 C          65.8843   94.6180   10.1886 C.ar    1  UNL1       -0.0042
     13 C          63.3050   90.5250   10.3360 C.3     1  UNL1        0.1168
     14 N          62.1437   89.6552   10.7168 N.am    1  UNL1       -0.2402
     15 C          62.3695   88.4184   11.5349 C.2     1  UNL1        0.4055
     16 O          63.7567   88.0513   11.9721 O.2     1  UNL1       -0.2262
     17 C          60.7566   90.0224   10.2796 C.3     1  UNL1        0.1235
     18 C          60.1101   89.2891    9.1419 C.ar    1  UNL1       -0.0022
     19 C          59.4902   87.9428    9.3729 C.ar    1  UNL1       -0.0026
     20 C          58.8438   87.2095    8.2353 C.ar    1  UNL1       -0.0003
     21 C          58.8172   87.8225    6.8665 C.ar    1  UNL1       -0.0000
     22 C          59.4371   89.1687    6.6354 C.ar    1  UNL1       -0.0003
     23 C          60.0836   89.9020    7.7731 C.ar    1  UNL1       -0.0026
     24 O          61.2083   87.5487   11.9157 O.3     1  UNL1       -0.4289
     25 C          61.2451   86.0780   11.6231 C.3     1  UNL1        0.2447
     26 C          62.0640   85.5614   10.4775 C.ar    1  UNL1        0.0714
     27 C          62.9235   84.3322   10.4917 C.ar    1  UNL1        0.1053
     28 N          63.5580   84.1945    9.1394 N.ar    1  UNL1       -0.2350
     29 C          63.0905   85.3386    8.2895 C.ar    1  UNL1        0.1343
     30 S          62.1672   86.1834    9.1164 S.2     1  UNL1       -0.0652
     31 C          63.9023   90.0647   15.1437 C.3     1  UNL1        0.1511
     32 N          63.3660   86.2587   16.1320 N.am    1  UNL1       -0.2567
     33 C          62.4516   85.4255   16.9802 C.3     1  UNL1        0.1168
     34 C          63.1770   87.7451   16.0619 C.2     1  UNL1        0.3046
     35 O          62.0735   88.3983   16.8401 O.2     1  UNL1       -0.2526
     36 N          64.0914   88.5783   15.2137 N.am    1  UNL1       -0.2824
     37 H          64.8157   88.1496   14.7030 H       1  UNL1        0.1514
     38 C          64.4695   85.6055   15.3539 C.3     1  UNL1        0.1413
     39 C          63.1600   82.3452   13.7042 C.ar    1  UNL1        0.0875
     40 N          63.0651   83.4113   14.7552 N.ar    1  UNL1       -0.2453
     41 C          64.1860   84.3829   14.5323 C.ar    1  UNL1        0.0858
     42 C          64.9735   83.9174   13.3435 C.ar    1  UNL1        0.0530
     43 S          64.3394   82.6580   12.8317 S.2     1  UNL1       -0.0705
     44 C          60.9106   81.1663   14.2520 C.3     1  UNL1        0.0069
     45 C          62.2374   81.1723   13.5524 C.3     1  UNL1        0.0465
     46 C          62.6416   80.0054   12.7009 C.3     1  UNL1        0.0069
     47 C          64.1224   90.9071   16.3652 C.3     1  UNL1        0.0463
     48 C          64.7000   92.2849   16.2319 C.3     1  UNL1        0.0745
     49 N          66.0763   92.4696   15.6645 N.3     1  UNL1       -0.2684
     50 C          67.2790   92.3047   16.5456 C.3     1  UNL1        0.1046
     51 C          68.6553   92.4893   15.9783 C.3     1  UNL1        0.1595
     52 O          68.8288   92.8388   14.5299 O.3     1  UNL1       -0.3508
     53 C          67.6261   93.0037   13.6489 C.3     1  UNL1        0.1595
     54 C          66.2499   92.8191   14.2162 C.3     1  UNL1        0.1046
@<TRIPOS>BOND
     1    44    45    1
     2    45    46    1
     3    45    39    1
     4    39    40   ar
     5    40    41   ar
     6    41    38    1
     7    38    32    1
     8    32    33    1
     9    32    34   am
    10    34    35    2
    11    34    36   am
    12    36    31    1
    13    31    47    1
    14    47    48    1
    15    48    49    1
    16    49    50    1
    17    50    51    1
    18    51    52    1
    19    52    53    1
    20    53    54    1
    21    31     1    1
    22     1     2    2
    23     1     3   am
    24     3     5    1
    25     5     6    1
    26     6     7    1
    27     7     8   ar
    28     8     9   ar
    29     9    10   ar
    30    10    11   ar
    31    11    12   ar
    32     5    13    1
    33    13    14    1
    34    14    17    1
    35    17    18    1
    36    18    19   ar
    37    19    20   ar
    38    20    21   ar
    39    21    22   ar
    40    22    23   ar
    41    14    15   am
    42    15    16    2
    43    15    24    1
    44    24    25    1
    45    25    26    1
    46    26    27   ar
    47    27    28   ar
    48    28    29   ar
    49    29    30   ar
    50    41    42   ar
    51    42    43   ar
    52    43    39   ar
    53    54    49    1
    54    12     7   ar
    55    23    18   ar
    56    30    26   ar
    57    36    37    1
    58     3     4    1
@<TRIPOS>MOLECULE
*****
 54 58 0 0 0
SMALL
GASTEIGER

@<TRIPOS>ATOM
      1 C          62.9050   89.4021   12.9992 C.2     1  UNL1        0.2404
      2 O          63.6265   89.1684   12.7536 O.2     1  UNL1       -0.2733
      3 N          62.3914   90.0637   14.2436 N.am    1  UNL1       -0.3026
      4 H          61.4320   90.2651   14.3339 H       1  UNL1        0.1495
      5 C          63.3397   90.4183   15.3504 C.3     1  UNL1        0.0958
      6 C          63.4027   89.5689   16.5851 C.3     1  UNL1        0.0476
      7 C          63.4020   88.0735   16.4674 C.ar    1  UNL1       -0.0205
      8 C          62.5521   87.2491   17.3883 C.ar    1  UNL1       -0.0042
      9 C          62.5515   85.7537   17.2705 C.ar    1  UNL1       -0.0003
     10 C          63.4008   85.0828   16.2320 C.ar    1  UNL1       -0.0000
     11 C          64.2507   85.9072   15.3112 C.ar    1  UNL1       -0.0003
     12 C          64.2513   87.4025   15.4289 C.ar    1  UNL1       -0.0042
     13 C          64.2250   91.6225   15.2226 C.3     1  UNL1        0.1168
     14 N          65.4161   91.5843   14.3116 N.am    1  UNL1       -0.2402
     15 C          65.2807   92.0162   12.8815 C.2     1  UNL1        0.4055
     16 O          63.9542   92.4862   12.3624 O.2     1  UNL1       -0.2262
     17 C          66.7426   91.1143   14.8308 C.3     1  UNL1        0.1235
     18 C          67.8271   92.1076   15.1260 C.ar    1  UNL1       -0.0022
     19 C          69.1657   91.9760   14.4620 C.ar    1  UNL1       -0.0026
     20 C          70.2502   92.9693   14.7572 C.ar    1  UNL1       -0.0003
     21 C          69.9961   94.0943   15.7163 C.ar    1  UNL1       -0.0000
     22 C          68.6576   94.2260   16.3802 C.ar    1  UNL1       -0.0003
     23 C          67.5730   93.2326   16.0850 C.ar    1  UNL1       -0.0026
     24 O          66.4718   91.9780   11.9706 O.3     1  UNL1       -0.4289
     25 C          66.3502   92.4626   10.5563 C.3     1  UNL1        0.2447
     26 C          66.6765   93.8878   10.2211 C.ar    1  UNL1        0.0714
     27 C          67.5478   94.3506    9.0912 C.ar    1  UNL1        0.1053
     28 N          67.5986   95.8493    9.1288 N.ar    1  UNL1       -0.2350
     29 C          66.7586   96.3128   10.2820 C.ar    1  UNL1        0.1343
     30 S          66.1888   95.1006   10.9570 S.2     1  UNL1       -0.0652
     31 C          61.9568   89.0475   11.8924 C.3     1  UNL1        0.1511
     32 N          62.3420   85.8417    9.5849 N.am    1  UNL1       -0.2567
     33 C          62.9087   85.4691    8.2470 C.3     1  UNL1        0.1168
     34 C          62.4327   87.2583   10.0697 C.2     1  UNL1        0.3046
     35 O          63.0902   88.3023    9.2166 O.2     1  UNL1       -0.2526
     36 N          61.8660   87.6309   11.4076 N.am    1  UNL1       -0.2824
     37 H          61.4345   86.9457   11.9675 H       1  UNL1        0.1514
     38 C          61.6845   84.7977   10.4380 C.3     1  UNL1        0.1413
     39 C          63.2522   82.1476   12.8012 C.ar    1  UNL1        0.0875
     40 N          62.1405   82.6119   11.9075 N.ar    1  UNL1       -0.2453
     41 C          62.5101   83.9636   11.3721 C.ar    1  UNL1        0.0858
     42 C          63.8501   84.3345   11.9349 C.ar    1  UNL1        0.0530
     43 S          64.3088   83.2122   12.8181 S.2     1  UNL1       -0.0705
     44 C          64.4883   80.5127   14.3977 C.3     1  UNL1        0.0069
     45 C          63.2990   80.8470   13.5469 C.3     1  UNL1        0.0465
     46 C          62.1566   79.8806   13.4419 C.3     1  UNL1        0.0069
     47 C          61.0992   90.1095   11.2703 C.3     1  UNL1        0.0463
     48 C          59.7312   89.7655   10.7604 C.3     1  UNL1        0.0745
     49 N          59.5769   89.0480    9.4521 N.3     1  UNL1       -0.2684
     50 C          59.2006   87.5962    9.4326 C.3     1  UNL1        0.1046
     51 C          59.0464   86.8789    8.1244 C.3     1  UNL1        0.1595
     52 O          59.2685   87.6134    6.8355 O.3     1  UNL1       -0.3508
     53 C          59.6448   89.0653    6.8549 C.3     1  UNL1        0.1595
     54 C          59.7990   89.7826    8.1632 C.3     1  UNL1        0.1046
@<TRIPOS>BOND
     1    44    45    1
     2    45    46    1
     3    45    39    1
     4    39    40   ar
     5    40    41   ar
     6    41    38    1
     7    38    32    1
     8    32    33    1
     9    32    34   am
    10    34    35    2
    11    34    36   am
    12    36    31    1
    13    31    47    1
    14    47    48    1
    15    48    49    1
    16    49    50    1
    17    50    51    1
    18    51    52    1
    19    52    53    1
    20    53    54    1
    21    31     1    1
    22     1     2    2
    23     1     3   am
    24     3     5    1
    25     5     6    1
    26     6     7    1
    27     7     8   ar
    28     8     9   ar
    29     9    10   ar
    30    10    11   ar
    31    11    12   ar
    32     5    13    1
    33    13    14    1
    34    14    17    1
    35    17    18    1
    36    18    19   ar
    37    19    20   ar
    38    20    21   ar
    39    21    22   ar
    40    22    23   ar
    41    14    15   am
    42    15    16    2
    43    15    24    1
    44    24    25    1
    45    25    26    1
    46    26    27   ar
    47    27    28   ar
    48    28    29   ar
    49    29    30   ar
    50    41    42   ar
    51    42    43   ar
    52    43    39   ar
    53    54    49    1
    54    12     7   ar
    55    23    18   ar
    56    30    26   ar
    57    36    37    1
    58     3     4    1
@<TRIPOS>MOLECULE
*****
 54 58 0 0 0
SMALL
GASTEIGER

@<TRIPOS>ATOM
      1 C          60.6669   87.7646    9.4497 C.2     1  UNL1        0.2404
      2 O          59.9882   87.3513    9.3857 O.2     1  UNL1       -0.2733
      3 N          62.1046   87.3835    9.6440 N.am    1  UNL1       -0.3026
      4 H          62.7963   88.0821    9.6962 H       1  UNL1        0.1495
      5 C          62.4884   85.9380    9.7588 C.3     1  UNL1        0.0958
      6 C          63.2630   85.2779    8.6569 C.3     1  UNL1        0.0476
      7 C          62.5724   84.8897    7.3832 C.ar    1  UNL1       -0.0205
      8 C          61.0748   84.8216    7.3326 C.ar    1  UNL1       -0.0042
      9 C          60.3843   84.4334    6.0588 C.ar    1  UNL1       -0.0003
     10 C          61.1913   84.1132    4.8357 C.ar    1  UNL1       -0.0000
     11 C          62.6889   84.1812    4.8862 C.ar    1  UNL1       -0.0003
     12 C          63.3795   84.5694    6.1599 C.ar    1  UNL1       -0.0042
     13 C          62.0977   85.1525   10.9755 C.3     1  UNL1        0.1168
     14 N          63.1564   84.5615   11.8586 N.am    1  UNL1       -0.2402
     15 C          63.7758   85.3904   12.9447 C.2     1  UNL1        0.4055
     16 O          63.3364   86.8102   13.1476 O.2     1  UNL1       -0.2262
     17 C          63.5957   83.1418   11.6557 C.3     1  UNL1        0.1235
     18 C          62.9110   82.0317   12.3964 C.ar    1  UNL1       -0.0022
     19 C          62.0220   82.3452   13.5634 C.ar    1  UNL1       -0.0026
     20 C          61.3372   81.2351   14.3041 C.ar    1  UNL1       -0.0003
     21 C          61.5413   79.8115   13.8779 C.ar    1  UNL1       -0.0000
     22 C          62.4302   79.4979   12.7111 C.ar    1  UNL1       -0.0003
     23 C          63.1150   80.6080   11.9703 C.ar    1  UNL1       -0.0026
     24 O          64.8345   84.7994   13.8278 O.3     1  UNL1       -0.4289
     25 C          64.5086   84.4285   15.2442 C.3     1  UNL1        0.2447
     26 C          63.4699   85.2011   16.0018 C.ar    1  UNL1        0.0714
     27 C          62.0072   84.8765   16.0732 C.ar    1  UNL1        0.1053
     28 N          61.3448   85.9089   16.9367 N.ar    1  UNL1       -0.2350
     29 C          62.3982   86.8716   17.3989 C.ar    1  UNL1        0.1343
     30 S          63.7116   86.4342   16.8212 S.2     1  UNL1       -0.0652
     31 C          60.2831   89.2101    9.3349 C.3     1  UNL1        0.1511
     32 N          59.3115   90.5128    5.7143 N.am    1  UNL1       -0.2567
     33 C          58.1692   90.4243    4.7462 C.3     1  UNL1        0.1168
     34 C          59.2262   89.8172    7.0405 C.2     1  UNL1        0.3046
     35 O          57.9986   89.0330    7.3986 O.2     1  UNL1       -0.2526
     36 N          60.3684   89.9057    8.0087 N.am    1  UNL1       -0.2824
     37 H          61.1741   90.4204    7.7738 H       1  UNL1        0.1514
     38 C          60.5390   91.2970    5.3563 C.3     1  UNL1        0.1413
     39 C          61.4923   92.8406    1.9250 C.ar    1  UNL1        0.0875
     40 N          61.8526   92.0695    3.1602 N.ar    1  UNL1       -0.2453
     41 C          60.6298   91.9815    4.0247 C.ar    1  UNL1        0.0858
     42 C          59.5140   92.6981    3.3237 C.ar    1  UNL1        0.0530
     43 S          60.0470   93.2290    2.0260 S.2     1  UNL1       -0.0705
     44 C          63.8937   93.2575    1.0253 C.3     1  UNL1        0.0069
     45 C          62.4153   93.1660    0.7883 C.3     1  UNL1        0.0465
     46 C          61.8601   93.3999   -0.5854 C.3     1  UNL1        0.0069
     47 C          59.8140   89.9600   10.5464 C.3     1  UNL1        0.0463
     48 C          60.6064   89.9007   11.8186 C.3     1  UNL1        0.0745
     49 N          62.0061   90.4388   11.8562 N.3     1  UNL1       -0.2684
     50 C          62.8266   90.3078   13.1050 C.3     1  UNL1        0.1046
     51 C          64.2263   90.8459   13.1425 C.3     1  UNL1        0.1595
     52 O          64.8054   91.5149   11.9313 O.3     1  UNL1       -0.3508
     53 C          63.9848   91.6458   10.6825 C.3     1  UNL1        0.1595
     54 C          62.5852   91.1078   10.6449 C.3     1  UNL1        0.1046
@<TRIPOS>BOND
     1    44    45    1
     2    45    46    1
     3    45    39    1
     4    39    40   ar
     5    40    41   ar
     6    41    38    1
     7    38    32    1
     8    32    33    1
     9    32    34   am
    10    34    35    2
    11    34    36   am
    12    36    31    1
    13    31    47    1
    14    47    48    1
    15    48    49    1
    16    49    50    1
    17    50    51    1
    18    51    52    1
    19    52    53    1
    20    53    54    1
    21    31     1    1
    22     1     2    2
    23     1     3   am
    24     3     5    1
    25     5     6    1
    26     6     7    1
    27     7     8   ar
    28     8     9   ar
    29     9    10   ar
    30    10    11   ar
    31    11    12   ar
    32     5    13    1
    33    13    14    1
    34    14    17    1
    35    17    18    1
    36    18    19   ar
    37    19    20   ar
    38    20    21   ar
    39    21    22   ar
    40    22    23   ar
    41    14    15   am
    42    15    16    2
    43    15    24    1
    44    24    25    1
    45    25    26    1
    46    26    27   ar
    47    27    28   ar
    48    28    29   ar
    49    29    30   ar
    50    41    42   ar
    51    42    43   ar
    52    43    39   ar
    53    54    49    1
    54    12     7   ar
    55    23    18   ar
    56    30    26   ar
    57    36    37    1
    58     3     4    1
