@<TRIPOS>MOLECULE
*****
 27 30 0 0 0
SMALL
GASTEIGER

@<TRIPOS>ATOM
      1 C          63.2487   90.7323   11.0614 C.3     1  UNL1        0.1910
      2 C          63.7516   90.4681   12.4496 C.3     1  UNL1        0.0423
      3 C          64.8895   91.2748   13.0013 C.3     1  UNL1        0.0412
      4 C          65.3924   91.0106   14.3896 C.3     1  UNL1        0.0672
      5 S          66.5303   91.8173   14.9412 S.3     1  UNL1       -0.0807
      6 C          67.1653   92.8883   14.1047 C.2     1  UNL1        0.1482
      7 N          68.3032   93.6950   14.6564 N.pl3   1  UNL1       -0.3380
      8 N          66.6623   93.1525   12.7164 N.2     1  UNL1       -0.2484
      9 C          65.5244   92.3458   12.1647 C.3     1  UNL1        0.1352
     10 C          65.0215   92.6100   10.7765 C.3     1  UNL1        0.1692
     11 O          63.8836   91.8033   10.2249 O.3     1  UNL1       -0.3446
     12 H          68.6333   93.5216   15.5675 H       1  UNL1        0.1442
     13 H          68.7200   94.3980   14.1073 H       1  UNL1        0.1442
     14 C          66.1593   93.4168   11.3282 C.ar    1  UNL1        0.0278
     15 C          65.7516   94.8491   11.5076 C.ar    1  UNL1        0.0021
     16 C          66.3865   95.9201   10.6710 C.ar    1  UNL1        0.0295
     17 C          67.4292   95.5587    9.6550 C.ar    1  UNL1        0.1424
     18 F          68.0642   96.6297    8.8185 F       1  UNL1       -0.2041
     19 C          67.8370   94.1264    9.4756 C.ar    1  UNL1        0.0590
     20 C          67.2020   93.0555   10.3122 C.ar    1  UNL1        0.1402
     21 F          67.6098   91.6232   10.1328 F       1  UNL1       -0.2044
     22 C          60.4517   86.7780    8.9586 C.3     1  UNL1        0.0556
     23 C          60.8251   88.1080    9.5431 C.ar    1  UNL1        0.0997
     24 C          59.8941   89.2604    9.7783 C.ar    1  UNL1        0.1958
     25 O          60.6887   90.3837   10.3756 O.2     1  UNL1       -0.4331
     26 C          62.1107   89.9256   10.5097 C.ar    1  UNL1        0.2327
     27 N          62.1950   88.5191    9.9952 N.ar    1  UNL1       -0.2144
@<TRIPOS>BOND
     1    22    23    1
     2    23    24   ar
     3    24    25   ar
     4    25    26   ar
     5     1    26    1
     6     1     2    1
     7     3     2    1
     8     3     4    1
     9     4     5    1
    10     5     6    1
    11     6     7    1
    12     6     8    2
    13     8     9    1
    14     9    14    1
    15    14    15   ar
    16    15    16   ar
    17    16    17   ar
    18    17    18    1
    19    17    19   ar
    20    19    20   ar
    21    20    21    1
    22     9    10    1
    23    10    11    1
    24    26    27   ar
    25    27    23   ar
    26    11     1    1
    27     9     3    1
    28    20    14   ar
    29     7    12    1
    30     7    13    1
@<TRIPOS>MOLECULE
*****
 27 30 0 0 0
SMALL
GASTEIGER

@<TRIPOS>ATOM
      1 C          63.2405   90.5335   11.7440 C.3     1  UNL1        0.1910
      2 C          63.8516   90.3659   13.1035 C.3     1  UNL1        0.0423
      3 C          65.1188   91.0895   13.4505 C.3     1  UNL1        0.0412
      4 C          65.7300   90.9220   14.8101 C.3     1  UNL1        0.0672
      5 S          66.9972   91.6456   15.1571 S.3     1  UNL1       -0.0807
      6 C          67.6534   92.5367   14.1445 C.2     1  UNL1        0.1482
      7 N          68.9207   93.2603   14.4916 N.pl3   1  UNL1       -0.3380
      8 N          67.0423   92.7042   12.7850 N.2     1  UNL1       -0.2484
      9 C          65.7750   91.9806   12.4379 C.3     1  UNL1        0.1352
     10 C          65.1639   92.1482   11.0784 C.3     1  UNL1        0.1692
     11 O          63.8966   91.4246   10.7314 O.3     1  UNL1       -0.3446
     12 H          69.3218   93.1503   15.3839 H       1  UNL1        0.1442
     13 H          69.3514   93.8452   13.8270 H       1  UNL1        0.1442
     14 C          66.4311   92.8718   11.4253 C.ar    1  UNL1        0.0278
     15 C          67.2338   92.2737   10.3081 C.ar    1  UNL1        0.0021
     16 C          67.8900   93.1648    9.2955 C.ar    1  UNL1        0.0295
     17 C          67.7434   94.6541    9.4002 C.ar    1  UNL1        0.1424
     18 F          68.3996   95.5452    8.3876 F       1  UNL1       -0.2041
     19 C          66.9408   95.2520   10.5173 C.ar    1  UNL1        0.0590
     20 C          66.2846   94.3609   11.5299 C.ar    1  UNL1        0.1402
     21 F          65.4820   94.9589   12.6471 F       1  UNL1       -0.2044
     22 C          59.6290   87.6995    9.1349 C.3     1  UNL1        0.0556
     23 C          60.3131   88.5072   10.1977 C.ar    1  UNL1        0.0997
     24 C          59.7328   88.8855   11.5282 C.ar    1  UNL1        0.1958
     25 O          60.7588   89.6906   12.2693 O.2     1  UNL1       -0.4331
     26 C          61.9731   89.8098   11.3969 C.ar    1  UNL1        0.2327
     27 N          61.6977   89.0785   10.1166 N.ar    1  UNL1       -0.2144
@<TRIPOS>BOND
     1    22    23    1
     2    23    24   ar
     3    24    25   ar
     4    25    26   ar
     5     1    26    1
     6     1     2    1
     7     3     2    1
     8     3     4    1
     9     4     5    1
    10     5     6    1
    11     6     7    1
    12     6     8    2
    13     8     9    1
    14     9    14    1
    15    14    15   ar
    16    15    16   ar
    17    16    17   ar
    18    17    18    1
    19    17    19   ar
    20    19    20   ar
    21    20    21    1
    22     9    10    1
    23    10    11    1
    24    26    27   ar
    25    27    23   ar
    26    11     1    1
    27     9     3    1
    28    20    14   ar
    29     7    12    1
    30     7    13    1
@<TRIPOS>MOLECULE
*****
 27 30 0 0 0
SMALL
GASTEIGER

@<TRIPOS>ATOM
      1 C          65.4760   92.6198   11.1033 C.3     1  UNL1        0.1910
      2 C          65.6736   92.5763   12.5896 C.3     1  UNL1        0.0423
      3 C          64.7857   91.7164   13.4394 C.3     1  UNL1        0.0412
      4 C          64.9833   91.6729   14.9257 C.3     1  UNL1        0.0672
      5 S          64.0954   90.8130   15.7755 S.3     1  UNL1       -0.0807
      6 C          63.0099   89.9966   15.1390 C.2     1  UNL1        0.1482
      7 N          62.1219   89.1367   15.9889 N.pl3   1  UNL1       -0.3380
      8 N          62.8122   90.0401   13.6527 N.2     1  UNL1       -0.2484
      9 C          63.7002   90.9001   12.8029 C.3     1  UNL1        0.1352
     10 C          63.5025   90.9436   11.3166 C.3     1  UNL1        0.1692
     11 O          64.3904   91.8035   10.4668 O.3     1  UNL1       -0.3446
     12 H          62.2517   89.1082   16.9644 H       1  UNL1        0.1442
     13 H          61.4094   88.6009   15.5711 H       1  UNL1        0.1442
     14 C          62.6146   90.0837   12.1664 C.ar    1  UNL1        0.0278
     15 C          61.3814   90.7561   11.6397 C.ar    1  UNL1        0.0021
     16 C          60.2959   89.9397   11.0032 C.ar    1  UNL1        0.0295
     17 C          60.4435   88.4509   10.8934 C.ar    1  UNL1        0.1424
     18 F          59.3579   87.6346   10.2570 F       1  UNL1       -0.2041
     19 C          61.6766   87.7787   11.4201 C.ar    1  UNL1        0.0590
     20 C          62.7621   88.5950   12.0566 C.ar    1  UNL1        0.1402
     21 F          63.9952   87.9228   12.5833 F       1  UNL1       -0.2044
     22 C          67.4087   96.7440    8.4317 C.3     1  UNL1        0.0556
     23 C          67.2523   95.3754    9.0255 C.ar    1  UNL1        0.0997
     24 C          68.2083   94.2305    8.8659 C.ar    1  UNL1        0.1958
     25 O          67.6592   93.0590    9.6248 O.2     1  UNL1       -0.4331
     26 C          66.3639   93.4798   10.2535 C.ar    1  UNL1        0.2327
     27 N          66.1124   94.9114    9.8830 N.ar    1  UNL1       -0.2144
@<TRIPOS>BOND
     1    22    23    1
     2    23    24   ar
     3    24    25   ar
     4    25    26   ar
     5     1    26    1
     6     1     2    1
     7     3     2    1
     8     3     4    1
     9     4     5    1
    10     5     6    1
    11     6     7    1
    12     6     8    2
    13     8     9    1
    14     9    14    1
    15    14    15   ar
    16    15    16   ar
    17    16    17   ar
    18    17    18    1
    19    17    19   ar
    20    19    20   ar
    21    20    21    1
    22     9    10    1
    23    10    11    1
    24    26    27   ar
    25    27    23   ar
    26    11     1    1
    27     9     3    1
    28    20    14   ar
    29     7    12    1
    30     7    13    1
@<TRIPOS>MOLECULE
*****
 27 30 0 0 0
SMALL
GASTEIGER

@<TRIPOS>ATOM
      1 C          63.0999   89.0331   12.7170 C.3     1  UNL1        0.1910
      2 C          62.0840   89.5264   11.7298 C.3     1  UNL1        0.0423
      3 C          61.5053   88.5851   10.7155 C.3     1  UNL1        0.0412
      4 C          60.4894   89.0784    9.7282 C.3     1  UNL1        0.0672
      5 S          59.9107   88.1371    8.7138 S.3     1  UNL1       -0.0807
      6 C          60.3478   86.7024    8.6867 C.2     1  UNL1        0.1482
      7 N          59.7691   85.7611    7.6722 N.pl3   1  UNL1       -0.3380
      8 N          61.3637   86.2091    9.6739 N.2     1  UNL1       -0.2484
      9 C          61.9425   87.1505   10.6883 C.3     1  UNL1        0.1352
     10 C          62.9583   86.6571   11.6755 C.3     1  UNL1        0.1692
     11 O          63.5370   87.5985   12.6899 O.3     1  UNL1       -0.3446
     12 H          59.1023   86.0849    7.0243 H       1  UNL1        0.1442
     13 H          60.0560   84.8195    7.6544 H       1  UNL1        0.1442
     14 C          62.3796   85.7158   10.6612 C.ar    1  UNL1        0.0278
     15 C          62.0337   84.8047   11.8016 C.ar    1  UNL1        0.0021
     16 C          62.4709   83.3701   11.7744 C.ar    1  UNL1        0.0295
     17 C          63.2538   82.8466   10.6069 C.ar    1  UNL1        0.1424
     18 F          63.6910   81.4119   10.5798 F       1  UNL1       -0.2041
     19 C          63.5996   83.7577    9.4666 C.ar    1  UNL1        0.0590
     20 C          63.1625   85.1923    9.4938 C.ar    1  UNL1        0.1402
     21 F          63.5083   86.1034    8.3535 F       1  UNL1       -0.2044
     22 C          66.2144   92.5954   15.0604 C.3     1  UNL1        0.0556
     23 C          65.1102   91.6118   14.8086 C.ar    1  UNL1        0.0997
     24 C          64.0282   91.2341   15.7764 C.ar    1  UNL1        0.1958
     25 O          63.1435   90.2221   15.1107 O.2     1  UNL1       -0.4331
     26 C          63.6786   89.9744   13.7315 C.ar    1  UNL1        0.2327
     27 N          64.8941   90.8333   13.5448 N.ar    1  UNL1       -0.2144
@<TRIPOS>BOND
     1    22    23    1
     2    23    24   ar
     3    24    25   ar
     4    25    26   ar
     5     1    26    1
     6     1     2    1
     7     3     2    1
     8     3     4    1
     9     4     5    1
    10     5     6    1
    11     6     7    1
    12     6     8    2
    13     8     9    1
    14     9    14    1
    15    14    15   ar
    16    15    16   ar
    17    16    17   ar
    18    17    18    1
    19    17    19   ar
    20    19    20   ar
    21    20    21    1
    22     9    10    1
    23    10    11    1
    24    26    27   ar
    25    27    23   ar
    26    11     1    1
    27     9     3    1
    28    20    14   ar
    29     7    12    1
    30     7    13    1
@<TRIPOS>MOLECULE
*****
 27 30 0 0 0
SMALL
GASTEIGER

@<TRIPOS>ATOM
      1 C          61.3597   86.7594   10.3113 C.3     1  UNL1        0.1910
      2 C          62.0622   87.7768   11.1606 C.3     1  UNL1        0.0423
      3 C          62.8889   87.3342   12.3313 C.3     1  UNL1        0.0412
      4 C          63.5915   88.3516   13.1807 C.3     1  UNL1        0.0672
      5 S          64.4182   87.9091   14.3515 S.3     1  UNL1       -0.0807
      6 C          64.5423   86.4492   14.6729 C.2     1  UNL1        0.1482
      7 N          65.3691   86.0067   15.8437 N.pl3   1  UNL1       -0.3380
      8 N          63.8398   85.4318   13.8236 N.2     1  UNL1       -0.2484
      9 C          63.0131   85.8743   12.6528 C.3     1  UNL1        0.1352
     10 C          62.3106   84.8570   11.8034 C.3     1  UNL1        0.1692
     11 O          61.4839   85.2995   10.6327 O.3     1  UNL1       -0.3446
     12 H          65.8302   86.6744   16.4012 H       1  UNL1        0.1442
     13 H          65.4506   85.0485   16.0547 H       1  UNL1        0.1442
     14 C          63.1372   84.4145   12.9742 C.ar    1  UNL1        0.0278
     15 C          64.0572   83.5449   12.1694 C.ar    1  UNL1        0.0021
     16 C          64.1814   82.0850   12.4908 C.ar    1  UNL1        0.0295
     17 C          63.3855   81.4947   13.6170 C.ar    1  UNL1        0.1424
     18 F          63.5097   80.0348   13.9385 F       1  UNL1       -0.2041
     19 C          62.4656   82.3642   14.4218 C.ar    1  UNL1        0.0590
     20 C          62.3415   83.8241   14.1003 C.ar    1  UNL1        0.1402
     21 F          61.4216   84.6937   14.9050 F       1  UNL1       -0.2044
     22 C          59.1730   89.7568    6.5543 C.3     1  UNL1        0.0556
     23 C          59.5279   88.5797    7.4136 C.ar    1  UNL1        0.0997
     24 C          58.9937   87.1859    7.2640 C.ar    1  UNL1        0.1958
     25 O          59.6149   86.3345    8.3313 O.2     1  UNL1       -0.4331
     26 C          60.5330   87.2019    9.1404 C.ar    1  UNL1        0.2327
     27 N          60.4792   88.5895    8.5733 N.ar    1  UNL1       -0.2144
@<TRIPOS>BOND
     1    22    23    1
     2    23    24   ar
     3    24    25   ar
     4    25    26   ar
     5     1    26    1
     6     1     2    1
     7     3     2    1
     8     3     4    1
     9     4     5    1
    10     5     6    1
    11     6     7    1
    12     6     8    2
    13     8     9    1
    14     9    14    1
    15    14    15   ar
    16    15    16   ar
    17    16    17   ar
    18    17    18    1
    19    17    19   ar
    20    19    20   ar
    21    20    21    1
    22     9    10    1
    23    10    11    1
    24    26    27   ar
    25    27    23   ar
    26    11     1    1
    27     9     3    1
    28    20    14   ar
    29     7    12    1
    30     7    13    1
@<TRIPOS>MOLECULE
*****
 27 30 0 0 0
SMALL
GASTEIGER

@<TRIPOS>ATOM
      1 C          63.8404   88.2649   13.8580 C.3     1  UNL1        0.1910
      2 C          64.0894   86.9487   14.5328 C.3     1  UNL1        0.0423
      3 C          63.7034   85.6706   13.8492 C.3     1  UNL1        0.0412
      4 C          63.9524   84.3542   14.5240 C.3     1  UNL1        0.0672
      5 S          63.5664   83.0761   13.8404 S.3     1  UNL1       -0.0807
      6 C          62.9314   83.1142   12.4820 C.2     1  UNL1        0.1482
      7 N          62.5454   81.8360   11.7984 N.pl3   1  UNL1       -0.3380
      8 N          62.6824   84.4305   11.8072 N.2     1  UNL1       -0.2484
      9 C          63.0684   85.7087   12.4908 C.3     1  UNL1        0.1352
     10 C          62.8194   87.0250   11.8159 C.3     1  UNL1        0.1692
     11 O          63.2054   88.3031   12.4996 O.3     1  UNL1       -0.3446
     12 H          62.7088   80.9721   12.2413 H       1  UNL1        0.1442
     13 H          62.1286   81.8610   10.9068 H       1  UNL1        0.1442
     14 C          62.4334   85.7468   11.1323 C.ar    1  UNL1        0.0278
     15 C          61.1089   86.4249   10.9424 C.ar    1  UNL1        0.0021
     16 C          60.4739   86.4630    9.5839 C.ar    1  UNL1        0.0295
     17 C          61.1634   85.8231    8.4155 C.ar    1  UNL1        0.1424
     18 F          60.5284   85.8612    7.0571 F       1  UNL1       -0.2041
     19 C          62.4878   85.1451    8.6055 C.ar    1  UNL1        0.0590
     20 C          63.1228   85.1070    9.9639 C.ar    1  UNL1        0.1402
     21 F          64.4472   84.4290   10.1540 F       1  UNL1       -0.2044
     22 C          66.4298   92.6770   15.1657 C.3     1  UNL1        0.0556
     23 C          65.4166   91.5711   15.1427 C.ar    1  UNL1        0.0997
     24 C          64.2241   91.4490   16.0444 C.ar    1  UNL1        0.1958
     25 O          63.4885   90.1956   15.6729 O.2     1  UNL1       -0.4331
     26 C          64.2264   89.5432   14.5416 C.ar    1  UNL1        0.2327
     27 N          65.4180   90.3933   14.2139 N.ar    1  UNL1       -0.2144
@<TRIPOS>BOND
     1    22    23    1
     2    23    24   ar
     3    24    25   ar
     4    25    26   ar
     5     1    26    1
     6     1     2    1
     7     3     2    1
     8     3     4    1
     9     4     5    1
    10     5     6    1
    11     6     7    1
    12     6     8    2
    13     8     9    1
    14     9    14    1
    15    14    15   ar
    16    15    16   ar
    17    16    17   ar
    18    17    18    1
    19    17    19   ar
    20    19    20   ar
    21    20    21    1
    22     9    10    1
    23    10    11    1
    24    26    27   ar
    25    27    23   ar
    26    11     1    1
    27     9     3    1
    28    20    14   ar
    29     7    12    1
    30     7    13    1
@<TRIPOS>MOLECULE
*****
 27 30 0 0 0
SMALL
GASTEIGER

@<TRIPOS>ATOM
      1 C          61.8431   86.7936   10.8350 C.3     1  UNL1        0.1910
      2 C          62.6179   87.2114   12.0495 C.3     1  UNL1        0.0423
      3 C          63.2704   86.1753   12.9158 C.3     1  UNL1        0.0412
      4 C          64.0453   86.5930   14.1304 C.3     1  UNL1        0.0672
      5 S          64.6979   85.5569   14.9967 S.3     1  UNL1       -0.0807
      6 C          64.5756   84.1030   14.6486 C.2     1  UNL1        0.1482
      7 N          65.2282   83.0669   15.5150 N.pl3   1  UNL1       -0.3380
      8 N          63.8008   83.6852   13.4341 N.2     1  UNL1       -0.2484
      9 C          63.1482   84.7214   12.5677 C.3     1  UNL1        0.1352
     10 C          62.3733   84.3036   11.3532 C.3     1  UNL1        0.1692
     11 O          61.7208   85.3397   10.4868 O.3     1  UNL1       -0.3446
     12 H          65.7367   83.3411   16.3122 H       1  UNL1        0.1442
     13 H          65.1479   82.1126   15.2865 H       1  UNL1        0.1442
     14 C          63.0259   83.2675   12.2195 C.ar    1  UNL1        0.0278
     15 C          62.1852   82.3610   13.0690 C.ar    1  UNL1        0.0021
     16 C          62.0629   80.9071   12.7209 C.ar    1  UNL1        0.0295
     17 C          62.7813   80.3596   11.5232 C.ar    1  UNL1        0.1424
     18 F          62.6590   78.9057   11.1751 F       1  UNL1       -0.2041
     19 C          63.6220   81.2661   10.6738 C.ar    1  UNL1        0.0590
     20 C          63.7443   82.7200   11.0219 C.ar    1  UNL1        0.1402
     21 F          64.5849   83.6265   10.1725 F       1  UNL1       -0.2044
     22 C          59.2503   89.1056    6.8584 C.3     1  UNL1        0.0556
     23 C          59.9987   88.8924    8.1408 C.ar    1  UNL1        0.0997
     24 C          60.3739   89.9559    9.1299 C.ar    1  UNL1        0.1958
     25 O          61.1104   89.2991   10.2596 O.2     1  UNL1       -0.4331
     26 C          61.1905   87.8297    9.9685 C.ar    1  UNL1        0.2327
     27 N          60.5034   87.5784    8.6591 N.ar    1  UNL1       -0.2144
@<TRIPOS>BOND
     1    22    23    1
     2    23    24   ar
     3    24    25   ar
     4    25    26   ar
     5     1    26    1
     6     1     2    1
     7     3     2    1
     8     3     4    1
     9     4     5    1
    10     5     6    1
    11     6     7    1
    12     6     8    2
    13     8     9    1
    14     9    14    1
    15    14    15   ar
    16    15    16   ar
    17    16    17   ar
    18    17    18    1
    19    17    19   ar
    20    19    20   ar
    21    20    21    1
    22     9    10    1
    23    10    11    1
    24    26    27   ar
    25    27    23   ar
    26    11     1    1
    27     9     3    1
    28    20    14   ar
    29     7    12    1
    30     7    13    1
@<TRIPOS>MOLECULE
*****
 27 30 0 0 0
SMALL
GASTEIGER

@<TRIPOS>ATOM
      1 C          64.2889   88.4648   14.4114 C.3     1  UNL1        0.1910
      2 C          63.7129   89.0364   13.1499 C.3     1  UNL1        0.0423
      3 C          64.2036   90.3558   12.6320 C.3     1  UNL1        0.0412
      4 C          63.6277   90.9275   11.3704 C.3     1  UNL1        0.0672
      5 S          64.1184   92.2469   10.8525 S.3     1  UNL1       -0.0807
      6 C          65.1850   92.9948   11.5962 C.2     1  UNL1        0.1482
      7 N          65.6757   94.3143   11.0783 N.pl3   1  UNL1       -0.3380
      8 N          65.7609   92.4232   12.8577 N.2     1  UNL1       -0.2484
      9 C          65.2702   91.1037   13.3757 C.3     1  UNL1        0.1352
     10 C          65.8462   90.5321   14.6372 C.3     1  UNL1        0.1692
     11 O          65.3555   89.2126   15.1551 O.3     1  UNL1       -0.3446
     12 H          65.2976   94.6895   10.2503 H       1  UNL1        0.1442
     13 H          66.3757   94.8052   11.5663 H       1  UNL1        0.1442
     14 C          66.3369   91.8515   14.1193 C.ar    1  UNL1        0.0278
     15 C          66.0041   92.5555   15.4014 C.ar    1  UNL1        0.0021
     16 C          67.0707   93.3034   16.1451 C.ar    1  UNL1        0.0295
     17 C          68.4701   93.3472   15.6067 C.ar    1  UNL1        0.1424
     18 F          69.5367   94.0950   16.3503 F       1  UNL1       -0.2041
     19 C          68.8028   92.6432   14.3247 C.ar    1  UNL1        0.0590
     20 C          67.7362   91.8953   13.5810 C.ar    1  UNL1        0.1402
     21 F          68.0689   91.1913   12.2990 F       1  UNL1       -0.2044
     22 C          62.9599   83.3625   14.6980 C.3     1  UNL1        0.0556
     23 C          63.1873   84.8000   15.0610 C.ar    1  UNL1        0.0997
     24 C          62.8989   85.4296   16.3917 C.ar    1  UNL1        0.1958
     25 O          63.2764   86.8790   16.3103 O.2     1  UNL1       -0.4331
     26 C          63.7982   87.1452   14.9293 C.ar    1  UNL1        0.2327
     27 N          63.7431   85.8604   14.1573 N.ar    1  UNL1       -0.2144
@<TRIPOS>BOND
     1    22    23    1
     2    23    24   ar
     3    24    25   ar
     4    25    26   ar
     5     1    26    1
     6     1     2    1
     7     3     2    1
     8     3     4    1
     9     4     5    1
    10     5     6    1
    11     6     7    1
    12     6     8    2
    13     8     9    1
    14     9    14    1
    15    14    15   ar
    16    15    16   ar
    17    16    17   ar
    18    17    18    1
    19    17    19   ar
    20    19    20   ar
    21    20    21    1
    22     9    10    1
    23    10    11    1
    24    26    27   ar
    25    27    23   ar
    26    11     1    1
    27     9     3    1
    28    20    14   ar
    29     7    12    1
    30     7    13    1
@<TRIPOS>MOLECULE
*****
 27 30 0 0 0
SMALL
GASTEIGER

@<TRIPOS>ATOM
      1 C          61.9024   89.5388   10.6230 C.3     1  UNL1        0.1910
      2 C          62.9377   90.5944   10.3703 C.3     1  UNL1        0.0423
      3 C          63.8464   91.0343   11.4796 C.3     1  UNL1        0.0412
      4 C          64.8818   92.0899   11.2270 C.3     1  UNL1        0.0672
      5 S          65.7906   92.5298   12.3362 S.3     1  UNL1       -0.0807
      6 C          65.6641   91.9141   13.6982 C.2     1  UNL1        0.1482
      7 N          66.5730   92.3540   14.8075 N.pl3   1  UNL1       -0.3380
      8 N          64.6289   90.8585   13.9509 N.2     1  UNL1       -0.2484
      9 C          63.7200   90.4186   12.8416 C.3     1  UNL1        0.1352
     10 C          62.6847   89.3630   13.0942 C.3     1  UNL1        0.1692
     11 O          61.7759   88.9231   11.9850 O.3     1  UNL1       -0.3446
     12 H          67.2525   93.0469   14.6416 H       1  UNL1        0.1442
     13 H          66.4900   91.9499   15.7014 H       1  UNL1        0.1442
     14 C          63.5935   89.8028   14.2035 C.ar    1  UNL1        0.0278
     15 C          63.1600   90.6422   15.3687 C.ar    1  UNL1        0.0021
     16 C          63.0335   90.0265   16.7307 C.ar    1  UNL1        0.0295
     17 C          63.3406   88.5714   16.9274 C.ar    1  UNL1        0.1424
     18 F          63.2141   87.9557   18.2894 F       1  UNL1       -0.2041
     19 C          63.7741   87.7322   15.7622 C.ar    1  UNL1        0.0590
     20 C          63.9006   88.3479   14.4003 C.ar    1  UNL1        0.1402
     21 F          64.3340   87.5086   13.2351 F       1  UNL1       -0.2044
     22 C          58.9629   86.5251    7.4358 C.3     1  UNL1        0.0556
     23 C          59.6424   87.7136    8.0487 C.ar    1  UNL1        0.0997
     24 C          59.5475   89.1302    7.5647 C.ar    1  UNL1        0.1958
     25 O          60.3826   89.9863    8.4701 O.2     1  UNL1       -0.4331
     26 C          60.9935   89.0988    9.5137 C.ar    1  UNL1        0.2327
     27 N          60.5361   87.6942    9.2533 N.ar    1  UNL1       -0.2144
@<TRIPOS>BOND
     1    22    23    1
     2    23    24   ar
     3    24    25   ar
     4    25    26   ar
     5     1    26    1
     6     1     2    1
     7     3     2    1
     8     3     4    1
     9     4     5    1
    10     5     6    1
    11     6     7    1
    12     6     8    2
    13     8     9    1
    14     9    14    1
    15    14    15   ar
    16    15    16   ar
    17    16    17   ar
    18    17    18    1
    19    17    19   ar
    20    19    20   ar
    21    20    21    1
    22     9    10    1
    23    10    11    1
    24    26    27   ar
    25    27    23   ar
    26    11     1    1
    27     9     3    1
    28    20    14   ar
    29     7    12    1
    30     7    13    1
