@<TRIPOS>MOLECULE
*****
 42 45 0 0 0
SMALL
GASTEIGER

@<TRIPOS>ATOM
      1 N          62.3834   86.3372   11.0058 N.pl3   1  UNL1       -0.2973
      2 C          62.3813   87.8326   11.1246 C.ar    1  UNL1        0.0826
      3 C          61.6756   88.6657   10.0961 C.ar    1  UNL1        0.0176
      4 C          61.6735   90.1609   10.2149 C.ar    1  UNL1        0.0015
      5 C          62.3772   90.8231   11.3623 C.ar    1  UNL1        0.0031
      6 C          63.0829   89.9900   12.3908 C.ar    1  UNL1        0.0353
      7 C          63.0850   88.4948   12.2719 C.ar    1  UNL1        0.1517
      8 O          63.7908   87.6616   13.3004 O.3     1  UNL1       -0.4721
      9 C          63.7928   86.1663   13.1816 C.3     1  UNL1        0.2295
     10 C          63.0892   85.5042   12.0343 C.3     1  UNL1        0.1397
     11 C          63.7866   90.6522   13.5381 C.ar    1  UNL1        0.0060
     12 C          63.3207   90.4114   14.9434 C.ar    1  UNL1        0.0003
     13 C          64.0243   91.0735   16.0907 C.ar    1  UNL1        0.0031
     14 C          65.1939   91.9765   15.8328 C.ar    1  UNL1        0.0372
     15 C          65.6599   92.2173   14.4275 C.ar    1  UNL1        0.1468
     16 C          64.9562   91.5551   13.2802 C.ar    1  UNL1        0.0373
     17 O          66.8296   93.1203   14.1695 O.3     1  UNL1       -0.4045
     18 C          68.1634   92.8140   14.7836 C.3     1  UNL1        0.5753
     19 F          69.4971   92.5076   15.3977 F       1  UNL1       -0.1328
     20 F          67.9529   93.9089   15.7870 F       1  UNL1       -0.1328
     21 F          68.3738   91.7190   13.7803 F       1  UNL1       -0.1328
     22 C          63.0913   84.0088   11.9155 C.ar    1  UNL1        0.0023
     23 C          63.5826   83.3571   10.6569 C.ar    1  UNL1       -0.0024
     24 C          63.5846   81.8619   10.5382 C.ar    1  UNL1        0.0028
     25 C          63.0954   81.0183   11.6779 C.ar    1  UNL1        0.0371
     26 C          62.6041   81.6700   12.9365 C.ar    1  UNL1        0.1439
     27 C          62.6021   83.1652   13.0552 C.ar    1  UNL1        0.0345
     28 O          62.1149   80.8264   14.0762 O.3     1  UNL1       -0.4263
     29 C          60.6805   80.3905   14.1249 C.3     1  UNL1        0.4723
     30 F          61.0835   79.0150   13.6826 F       1  UNL1       -0.1579
     31 F          60.2775   81.7659   14.5672 F       1  UNL1       -0.1579
     32 C          59.2461   79.9545   14.1736 C.3     1  UNL1        0.4202
     33 F          58.9070   78.5220   14.4617 F       1  UNL1       -0.1876
     34 F          58.1508   80.9510   13.9343 F       1  UNL1       -0.1876
     35 C          61.6798   85.6751    9.8584 C.3     1  UNL1        0.1294
     36 O          63.7291   86.1341    8.3289 O.3     1  UNL1       -0.3756
     37 C          62.3264   85.6331    8.5055 C.3     1  UNL1        0.2260
     38 H          64.0701   86.4480    9.1810 H       1  UNL1        0.2107
     39 C          61.5701   85.0902    7.3294 C.3     1  UNL1        0.4235
     40 F          60.8139   84.5473    6.1532 F       1  UNL1       -0.1674
     41 F          60.2934   85.6328    7.8998 F       1  UNL1       -0.1674
     42 F          62.8469   84.5476    6.7589 F       1  UNL1       -0.1674
@<TRIPOS>BOND
     1    37    36    1
     2    37    35    1
     3    35     1    1
     4     1     2    1
     5     2     3   ar
     6     3     4   ar
     7     4     5   ar
     8     5     6   ar
     9     6    11    1
    10    11    12   ar
    11    12    13   ar
    12    13    14   ar
    13    14    15   ar
    14    15    17    1
    15    17    18    1
    16    18    19    1
    17    18    20    1
    18    18    21    1
    19    15    16   ar
    20     6     7   ar
    21     7     8    1
    22     8     9    1
    23     9    10    1
    24    10    22    1
    25    22    23   ar
    26    23    24   ar
    27    24    25   ar
    28    25    26   ar
    29    26    28    1
    30    28    29    1
    31    29    30    1
    32    29    31    1
    33    29    32    1
    34    32    33    1
    35    32    34    1
    36    26    27   ar
    37    37    39    1
    38    39    40    1
    39    39    41    1
    40    39    42    1
    41    10     1    1
    42    27    22   ar
    43     7     2   ar
    44    16    11   ar
    45    36    38    1
@<TRIPOS>MOLECULE
*****
 42 45 0 0 0
SMALL
GASTEIGER

@<TRIPOS>ATOM
      1 N          62.2941   86.3787   11.4074 N.pl3   1  UNL1       -0.2973
      2 C          63.1017   86.5754   12.6560 C.ar    1  UNL1        0.0826
      3 C          63.6321   85.3866   13.4012 C.ar    1  UNL1        0.0176
      4 C          64.4397   85.5833   14.6498 C.ar    1  UNL1        0.0015
      5 C          64.7169   86.9688   15.1532 C.ar    1  UNL1        0.0031
      6 C          64.1864   88.1577   14.4081 C.ar    1  UNL1        0.0353
      7 C          63.3788   87.9609   13.1595 C.ar    1  UNL1        0.1517
      8 O          62.8483   89.1498   12.4143 O.3     1  UNL1       -0.4721
      9 C          62.0407   88.9531   11.1657 C.3     1  UNL1        0.2295
     10 C          61.7636   87.5675   10.6622 C.3     1  UNL1        0.1397
     11 C          64.4636   89.5432   14.9115 C.ar    1  UNL1        0.0060
     12 C          63.6929   90.0852   16.0787 C.ar    1  UNL1        0.0003
     13 C          63.9701   91.4707   16.5822 C.ar    1  UNL1        0.0031
     14 C          65.0178   92.3143   15.9185 C.ar    1  UNL1        0.0372
     15 C          65.7885   91.7723   14.7513 C.ar    1  UNL1        0.1468
     16 C          65.5113   90.3867   14.2478 C.ar    1  UNL1        0.0373
     17 O          66.8363   92.6158   14.0875 O.3     1  UNL1       -0.4045
     18 C          67.0548   92.5131   12.6071 C.3     1  UNL1        0.5753
     19 F          67.2733   92.4104   11.1266 F       1  UNL1       -0.1328
     20 F          65.8498   93.3742   12.3695 F       1  UNL1       -0.1328
     21 F          68.2599   91.6521   12.8447 F       1  UNL1       -0.1328
     22 C          60.9560   87.3708    9.4135 C.ar    1  UNL1        0.0023
     23 C          60.9823   86.0498    8.7036 C.ar    1  UNL1       -0.0024
     24 C          60.1747   85.8531    7.4550 C.ar    1  UNL1        0.0028
     25 C          59.3408   86.9776    6.9163 C.ar    1  UNL1        0.0371
     26 C          59.3144   88.2986    7.6263 C.ar    1  UNL1        0.1439
     27 C          60.1220   88.4953    8.8749 C.ar    1  UNL1        0.0345
     28 O          58.4804   89.4231    7.0876 O.3     1  UNL1       -0.4263
     29 C          59.0111   90.2880    5.9830 C.3     1  UNL1        0.4723
     30 F          57.6082   90.6166    5.5663 F       1  UNL1       -0.1579
     31 F          60.4141   89.9593    6.3996 F       1  UNL1       -0.1579
     32 C          59.5418   91.1529    4.8782 C.3     1  UNL1        0.4202
     33 F          58.5926   91.8982    3.9874 F       1  UNL1       -0.1876
     34 F          61.0216   91.2726    4.6644 F       1  UNL1       -0.1876
     35 C          62.0169   84.9932   10.9039 C.3     1  UNL1        0.1294
     36 O          63.7276   84.4433    9.0273 O.3     1  UNL1       -0.3756
     37 C          63.1385   84.1490   10.3750 C.3     1  UNL1        0.2260
     38 H          63.2724   85.2046    8.6347 H       1  UNL1        0.2107
     39 C          63.6709   83.0106   11.1939 C.3     1  UNL1        0.4235
     40 F          64.2033   81.8722   12.0128 F       1  UNL1       -0.1674
     41 F          62.2948   82.7550   11.7332 F       1  UNL1       -0.1674
     42 F          65.0471   83.2663   10.6546 F       1  UNL1       -0.1674
@<TRIPOS>BOND
     1    37    36    1
     2    37    35    1
     3    35     1    1
     4     1     2    1
     5     2     3   ar
     6     3     4   ar
     7     4     5   ar
     8     5     6   ar
     9     6    11    1
    10    11    12   ar
    11    12    13   ar
    12    13    14   ar
    13    14    15   ar
    14    15    17    1
    15    17    18    1
    16    18    19    1
    17    18    20    1
    18    18    21    1
    19    15    16   ar
    20     6     7   ar
    21     7     8    1
    22     8     9    1
    23     9    10    1
    24    10    22    1
    25    22    23   ar
    26    23    24   ar
    27    24    25   ar
    28    25    26   ar
    29    26    28    1
    30    28    29    1
    31    29    30    1
    32    29    31    1
    33    29    32    1
    34    32    33    1
    35    32    34    1
    36    26    27   ar
    37    37    39    1
    38    39    40    1
    39    39    41    1
    40    39    42    1
    41    10     1    1
    42    27    22   ar
    43     7     2   ar
    44    16    11   ar
    45    36    38    1
@<TRIPOS>MOLECULE
*****
 42 45 0 0 0
SMALL
GASTEIGER

@<TRIPOS>ATOM
      1 N          62.3198   86.4616   11.4349 N.pl3   1  UNL1       -0.2973
      2 C          63.1323   86.6410   12.6830 C.ar    1  UNL1        0.0826
      3 C          63.6318   85.4410   13.4317 C.ar    1  UNL1        0.0176
      4 C          64.4443   85.6204   14.6797 C.ar    1  UNL1        0.0015
      5 C          64.7573   86.9997   15.1791 C.ar    1  UNL1        0.0031
      6 C          64.2578   88.1997   14.4304 C.ar    1  UNL1        0.0353
      7 C          63.4453   88.0203   13.1824 C.ar    1  UNL1        0.1517
      8 O          62.9458   89.2203   12.4337 O.3     1  UNL1       -0.4721
      9 C          62.1333   89.0410   11.1857 C.3     1  UNL1        0.2295
     10 C          61.8203   87.6616   10.6863 C.3     1  UNL1        0.1397
     11 C          64.5708   89.5791   14.9298 C.ar    1  UNL1        0.0060
     12 C          63.6743   90.2326   15.9393 C.ar    1  UNL1        0.0003
     13 C          63.9873   91.6120   16.4387 C.ar    1  UNL1        0.0031
     14 C          65.1968   92.3378   15.9286 C.ar    1  UNL1        0.0372
     15 C          66.0933   91.6842   14.9192 C.ar    1  UNL1        0.1468
     16 C          65.7803   90.3049   14.4198 C.ar    1  UNL1        0.0373
     17 O          67.3029   92.4100   14.4090 O.3     1  UNL1       -0.4045
     18 C          67.9882   93.4259   15.2741 C.3     1  UNL1        0.5753
     19 F          68.6735   94.4418   16.1391 F       1  UNL1       -0.1328
     20 F          68.7227   92.3268   15.9829 F       1  UNL1       -0.1328
     21 F          67.2537   94.5250   14.5652 F       1  UNL1       -0.1328
     22 C          61.0078   87.4823    9.4382 C.ar    1  UNL1        0.0023
     23 C          61.0034   86.1602    8.7296 C.ar    1  UNL1       -0.0024
     24 C          60.1908   85.9810    7.4816 C.ar    1  UNL1        0.0028
     25 C          59.3827   87.1237    6.9421 C.ar    1  UNL1        0.0371
     26 C          59.3871   88.4458    7.6507 C.ar    1  UNL1        0.1439
     27 C          60.1996   88.6251    8.8987 C.ar    1  UNL1        0.0345
     28 O          58.5790   89.5886    7.1112 O.3     1  UNL1       -0.4263
     29 C          59.1009   90.3997    5.9625 C.3     1  UNL1        0.4723
     30 F          60.5061   90.0522    6.3554 F       1  UNL1       -0.1579
     31 F          57.6956   90.7473    5.5695 F       1  UNL1       -0.1579
     32 C          59.6228   91.2110    4.8137 C.3     1  UNL1        0.4202
     33 F          61.0958   91.2534    4.5335 F       1  UNL1       -0.1876
     34 F          58.6717   91.9797    3.9451 F       1  UNL1       -0.1876
     35 C          62.0068   85.0823   10.9355 C.3     1  UNL1        0.1294
     36 O          63.5778   84.5277    8.9419 O.3     1  UNL1       -0.3756
     37 C          63.0906   84.2396   10.3310 C.3     1  UNL1        0.2260
     38 H          63.0913   85.2844    8.5791 H       1  UNL1        0.2107
     39 C          63.6871   83.1089   11.1156 C.3     1  UNL1        0.4235
     40 F          64.2837   81.9782   11.9002 F       1  UNL1       -0.1674
     41 F          65.0087   83.3410   10.4452 F       1  UNL1       -0.1674
     42 F          62.3655   82.8768   11.7860 F       1  UNL1       -0.1674
@<TRIPOS>BOND
     1    37    36    1
     2    37    35    1
     3    35     1    1
     4     1     2    1
     5     2     3   ar
     6     3     4   ar
     7     4     5   ar
     8     5     6   ar
     9     6    11    1
    10    11    12   ar
    11    12    13   ar
    12    13    14   ar
    13    14    15   ar
    14    15    17    1
    15    17    18    1
    16    18    19    1
    17    18    20    1
    18    18    21    1
    19    15    16   ar
    20     6     7   ar
    21     7     8    1
    22     8     9    1
    23     9    10    1
    24    10    22    1
    25    22    23   ar
    26    23    24   ar
    27    24    25   ar
    28    25    26   ar
    29    26    28    1
    30    28    29    1
    31    29    30    1
    32    29    31    1
    33    29    32    1
    34    32    33    1
    35    32    34    1
    36    26    27   ar
    37    37    39    1
    38    39    40    1
    39    39    41    1
    40    39    42    1
    41    10     1    1
    42    27    22   ar
    43     7     2   ar
    44    16    11   ar
    45    36    38    1
@<TRIPOS>MOLECULE
*****
 42 45 0 0 0
SMALL
GASTEIGER

@<TRIPOS>ATOM
      1 N          62.4310   86.7698   11.8528 N.pl3   1  UNL1       -0.2973
      2 C          62.6057   88.2230   11.5241 C.ar    1  UNL1        0.0826
      3 C          61.8827   88.8191   10.3529 C.ar    1  UNL1        0.0176
      4 C          62.0574   90.2722   10.0242 C.ar    1  UNL1        0.0015
      5 C          62.9551   91.1291   10.8668 C.ar    1  UNL1        0.0031
      6 C          63.6781   90.5329   12.0380 C.ar    1  UNL1        0.0353
      7 C          63.5034   89.0799   12.3667 C.ar    1  UNL1        0.1517
      8 O          64.2264   88.4836   13.5380 O.3     1  UNL1       -0.4721
      9 C          64.0517   87.0306   13.8666 C.3     1  UNL1        0.2295
     10 C          63.1540   86.1737   13.0241 C.3     1  UNL1        0.1397
     11 C          64.5758   91.3898   12.8806 C.ar    1  UNL1        0.0060
     12 C          64.7916   91.0547   14.3266 C.ar    1  UNL1        0.0003
     13 C          65.6893   91.9115   15.1692 C.ar    1  UNL1        0.0031
     14 C          66.3711   93.1036   14.5657 C.ar    1  UNL1        0.0372
     15 C          66.1552   93.4387   13.1197 C.ar    1  UNL1        0.1468
     16 C          65.2576   92.5818   12.2771 C.ar    1  UNL1        0.0373
     17 O          66.8371   94.6307   12.5162 O.3     1  UNL1       -0.4045
     18 C          66.4598   95.0936   11.1402 C.3     1  UNL1        0.5753
     19 F          66.0824   95.5565    9.7642 F       1  UNL1       -0.1328
     20 F          65.6347   96.1950   11.7370 F       1  UNL1       -0.1328
     21 F          67.2849   93.9922   10.5434 F       1  UNL1       -0.1328
     22 C          62.9793   84.7205   13.3528 C.ar    1  UNL1        0.0023
     23 C          62.1198   84.3119   14.5122 C.ar    1  UNL1       -0.0024
     24 C          61.9451   82.8589   14.8408 C.ar    1  UNL1        0.0028
     25 C          62.6300   81.8144   14.0101 C.ar    1  UNL1        0.0371
     26 C          63.4895   82.2230   12.8507 C.ar    1  UNL1        0.1439
     27 C          63.6642   83.6761   12.5221 C.ar    1  UNL1        0.0345
     28 O          64.1744   81.1786   12.0200 O.3     1  UNL1       -0.4263
     29 C          63.3764   80.3291   11.0760 C.3     1  UNL1        0.4723
     30 F          63.8437   81.1694    9.9247 F       1  UNL1       -0.1579
     31 F          62.9090   79.4887   12.2272 F       1  UNL1       -0.1579
     32 C          62.5783   79.4795   10.1318 C.3     1  UNL1        0.4202
     33 F          61.9803   80.0881    8.8981 F       1  UNL1       -0.1876
     34 F          62.3782   78.0214   10.4214 F       1  UNL1       -0.1876
     35 C          61.5333   85.9130   11.0103 C.3     1  UNL1        0.1294
     36 O          63.2416   84.8569    9.3620 O.3     1  UNL1       -0.3756
     37 C          61.9367   85.5535    9.6109 C.3     1  UNL1        0.2260
     38 H          63.6982   84.7146   10.2058 H       1  UNL1        0.2107
     39 C          61.0351   85.8907    8.4605 C.3     1  UNL1        0.4235
     40 F          60.1335   86.2280    7.3101 F       1  UNL1       -0.1674
     41 F          59.9990   86.3957    9.4205 F       1  UNL1       -0.1674
     42 F          62.0711   85.3858    7.5005 F       1  UNL1       -0.1674
@<TRIPOS>BOND
     1    37    36    1
     2    37    35    1
     3    35     1    1
     4     1     2    1
     5     2     3   ar
     6     3     4   ar
     7     4     5   ar
     8     5     6   ar
     9     6    11    1
    10    11    12   ar
    11    12    13   ar
    12    13    14   ar
    13    14    15   ar
    14    15    17    1
    15    17    18    1
    16    18    19    1
    17    18    20    1
    18    18    21    1
    19    15    16   ar
    20     6     7   ar
    21     7     8    1
    22     8     9    1
    23     9    10    1
    24    10    22    1
    25    22    23   ar
    26    23    24   ar
    27    24    25   ar
    28    25    26   ar
    29    26    28    1
    30    28    29    1
    31    29    30    1
    32    29    31    1
    33    29    32    1
    34    32    33    1
    35    32    34    1
    36    26    27   ar
    37    37    39    1
    38    39    40    1
    39    39    41    1
    40    39    42    1
    41    10     1    1
    42    27    22   ar
    43     7     2   ar
    44    16    11   ar
    45    36    38    1
@<TRIPOS>MOLECULE
*****
 42 45 0 0 0
SMALL
GASTEIGER

@<TRIPOS>ATOM
      1 N          62.5622   87.3045   12.1553 N.pl3   1  UNL1       -0.2973
      2 C          62.6523   88.6536   11.5058 C.ar    1  UNL1        0.0826
      3 C          61.7834   88.9780   10.3269 C.ar    1  UNL1        0.0176
      4 C          61.8735   90.3270    9.6774 C.ar    1  UNL1        0.0015
      5 C          62.8325   91.3517   10.2068 C.ar    1  UNL1        0.0031
      6 C          63.7014   91.0274   11.3856 C.ar    1  UNL1        0.0353
      7 C          63.6113   89.6783   12.0351 C.ar    1  UNL1        0.1517
      8 O          64.4803   89.3539   13.2140 O.3     1  UNL1       -0.4721
      9 C          64.3902   88.0049   13.8635 C.3     1  UNL1        0.2295
     10 C          63.4311   86.9802   13.3342 C.3     1  UNL1        0.1397
     11 C          64.6605   92.0521   11.9150 C.ar    1  UNL1        0.0060
     12 C          65.1547   91.9575   13.3280 C.ar    1  UNL1        0.0003
     13 C          66.1137   92.9822   13.8574 C.ar    1  UNL1        0.0031
     14 C          66.5786   94.1015   12.9736 C.ar    1  UNL1        0.0372
     15 C          66.0844   94.1961   11.5606 C.ar    1  UNL1        0.1468
     16 C          65.1253   93.1714   11.0312 C.ar    1  UNL1        0.0373
     17 O          66.5492   95.3155   10.6768 O.3     1  UNL1       -0.4045
     18 C          67.1644   95.0118    9.3428 C.3     1  UNL1        0.5753
     19 F          67.7795   94.7082    8.0089 F       1  UNL1       -0.1328
     20 F          66.4477   96.1861    8.7450 F       1  UNL1       -0.1328
     21 F          67.8811   93.8375    9.9406 F       1  UNL1       -0.1328
     22 C          63.3410   85.6310   13.9838 C.ar    1  UNL1        0.0023
     23 C          62.7233   85.4932   15.3437 C.ar    1  UNL1       -0.0024
     24 C          62.6333   84.1441   15.9932 C.ar    1  UNL1        0.0028
     25 C          63.1609   82.9329   15.2827 C.ar    1  UNL1        0.0371
     26 C          63.7786   83.0708   13.9228 C.ar    1  UNL1        0.1439
     27 C          63.8686   84.4199   13.2733 C.ar    1  UNL1        0.0345
     28 O          64.3062   81.8597   13.2124 O.3     1  UNL1       -0.4263
     29 C          63.3770   80.7402   12.8472 C.3     1  UNL1        0.4723
     30 F          63.5819   80.1284   14.2014 F       1  UNL1       -0.1579
     31 F          63.1721   81.3520   11.4931 F       1  UNL1       -0.1579
     32 C          62.4478   79.6207   12.4821 C.3     1  UNL1        0.4202
     33 F          61.3458   79.2246   13.4195 F       1  UNL1       -0.1876
     34 F          62.6205   78.8973   11.1795 F       1  UNL1       -0.1876
     35 C          61.6031   86.2798   11.6260 C.3     1  UNL1        0.1294
     36 O          60.6498   86.1918    9.2107 O.3     1  UNL1       -0.3756
     37 C          61.7101   85.8168   10.2032 C.3     1  UNL1        0.2260
     38 H          59.9727   86.7306    9.6490 H       1  UNL1        0.2107
     39 C          62.8775   84.9787    9.7730 C.3     1  UNL1        0.4235
     40 F          64.0448   84.1407    9.3428 F       1  UNL1       -0.1674
     41 F          62.5563   83.9807   10.8458 F       1  UNL1       -0.1674
     42 F          63.1986   85.9767    8.7003 F       1  UNL1       -0.1674
@<TRIPOS>BOND
     1    37    36    1
     2    37    35    1
     3    35     1    1
     4     1     2    1
     5     2     3   ar
     6     3     4   ar
     7     4     5   ar
     8     5     6   ar
     9     6    11    1
    10    11    12   ar
    11    12    13   ar
    12    13    14   ar
    13    14    15   ar
    14    15    17    1
    15    17    18    1
    16    18    19    1
    17    18    20    1
    18    18    21    1
    19    15    16   ar
    20     6     7   ar
    21     7     8    1
    22     8     9    1
    23     9    10    1
    24    10    22    1
    25    22    23   ar
    26    23    24   ar
    27    24    25   ar
    28    25    26   ar
    29    26    28    1
    30    28    29    1
    31    29    30    1
    32    29    31    1
    33    29    32    1
    34    32    33    1
    35    32    34    1
    36    26    27   ar
    37    37    39    1
    38    39    40    1
    39    39    41    1
    40    39    42    1
    41    10     1    1
    42    27    22   ar
    43     7     2   ar
    44    16    11   ar
    45    36    38    1
@<TRIPOS>MOLECULE
*****
 42 45 0 0 0
SMALL
GASTEIGER

@<TRIPOS>ATOM
      1 N          61.5904   87.8282   10.5587 N.pl3   1  UNL1       -0.2973
      2 C          60.7473   87.6416    9.3321 C.ar    1  UNL1        0.0826
      3 C          60.1812   86.2906    9.0095 C.ar    1  UNL1        0.0176
      4 C          59.3381   86.1041    7.7830 C.ar    1  UNL1        0.0015
      5 C          59.0612   87.2687    6.8791 C.ar    1  UNL1        0.0031
      6 C          59.6273   88.6197    7.2016 C.ar    1  UNL1        0.0353
      7 C          60.4703   88.8062    8.4282 C.ar    1  UNL1        0.1517
      8 O          61.0365   90.1573    8.7508 O.3     1  UNL1       -0.4721
      9 C          61.8796   90.3438    9.9773 C.3     1  UNL1        0.2295
     10 C          62.1565   89.1792   10.8813 C.3     1  UNL1        0.1397
     11 C          59.3503   89.7843    6.2977 C.ar    1  UNL1        0.0060
     12 C          57.9375   90.2258    6.0548 C.ar    1  UNL1        0.0003
     13 C          57.6606   91.3904    5.1509 C.ar    1  UNL1        0.0031
     14 C          58.7964   92.1134    4.4898 C.ar    1  UNL1        0.0372
     15 C          60.2092   91.6719    4.7327 C.ar    1  UNL1        0.1468
     16 C          60.4862   90.5073    5.6366 C.ar    1  UNL1        0.0373
     17 O          61.3452   92.3949    4.0716 O.3     1  UNL1       -0.4045
     18 C          61.8518   91.9346    2.7369 C.3     1  UNL1        0.5753
     19 F          62.3584   91.4743    1.4022 F       1  UNL1       -0.1328
     20 F          62.8216   91.0175    3.4213 F       1  UNL1       -0.1328
     21 F          60.8819   92.8517    2.0525 F       1  UNL1       -0.1328
     22 C          62.9996   89.3658   12.1079 C.ar    1  UNL1        0.0023
     23 C          63.3661   90.7472   12.5631 C.ar    1  UNL1       -0.0024
     24 C          64.2092   90.9337   13.7896 C.ar    1  UNL1        0.0028
     25 C          64.6858   89.7388   14.5609 C.ar    1  UNL1        0.0371
     26 C          64.3194   88.3573   14.1057 C.ar    1  UNL1        0.1439
     27 C          63.4763   88.1708   12.8792 C.ar    1  UNL1        0.0345
     28 O          64.7960   87.1624   14.8770 O.3     1  UNL1       -0.4263
     29 C          63.8227   86.3503   15.6788 C.3     1  UNL1        0.4723
     30 F          63.4968   87.5580   16.5065 F       1  UNL1       -0.1579
     31 F          64.1485   85.1425   14.8512 F       1  UNL1       -0.1579
     32 C          62.8493   85.5381   16.4808 C.3     1  UNL1        0.4202
     33 F          62.4046   86.0185   17.8304 F       1  UNL1       -0.1876
     34 F          62.3206   84.2457   15.9330 F       1  UNL1       -0.1876
     35 C          61.8673   86.6636   11.4626 C.3     1  UNL1        0.1294
     36 O          63.0051   85.4017    9.4971 O.3     1  UNL1       -0.3756
     37 C          62.5178   85.4276   10.9155 C.3     1  UNL1        0.2260
     38 H          62.8237   86.2571    9.0772 H       1  UNL1        0.2107
     39 C          62.6810   84.2176   11.7869 C.3     1  UNL1        0.4235
     40 F          62.8443   83.0076   12.6582 F       1  UNL1       -0.1674
     41 F          63.2960   83.4737   10.6387 F       1  UNL1       -0.1674
     42 F          62.0661   84.9615   12.9351 F       1  UNL1       -0.1674
@<TRIPOS>BOND
     1    37    36    1
     2    37    35    1
     3    35     1    1
     4     1     2    1
     5     2     3   ar
     6     3     4   ar
     7     4     5   ar
     8     5     6   ar
     9     6    11    1
    10    11    12   ar
    11    12    13   ar
    12    13    14   ar
    13    14    15   ar
    14    15    17    1
    15    17    18    1
    16    18    19    1
    17    18    20    1
    18    18    21    1
    19    15    16   ar
    20     6     7   ar
    21     7     8    1
    22     8     9    1
    23     9    10    1
    24    10    22    1
    25    22    23   ar
    26    23    24   ar
    27    24    25   ar
    28    25    26   ar
    29    26    28    1
    30    28    29    1
    31    29    30    1
    32    29    31    1
    33    29    32    1
    34    32    33    1
    35    32    34    1
    36    26    27   ar
    37    37    39    1
    38    39    40    1
    39    39    41    1
    40    39    42    1
    41    10     1    1
    42    27    22   ar
    43     7     2   ar
    44    16    11   ar
    45    36    38    1
@<TRIPOS>MOLECULE
*****
 42 45 0 0 0
SMALL
GASTEIGER

@<TRIPOS>ATOM
      1 N          61.5712   87.8236   10.5255 N.pl3   1  UNL1       -0.2973
      2 C          60.7209   87.6716    9.2992 C.ar    1  UNL1        0.0826
      3 C          60.0873   86.3488    8.9851 C.ar    1  UNL1        0.0176
      4 C          59.2370   86.1968    7.7588 C.ar    1  UNL1        0.0015
      5 C          59.0203   87.3677    6.8466 C.ar    1  UNL1        0.0031
      6 C          59.6540   88.6905    7.1606 C.ar    1  UNL1        0.0353
      7 C          60.5042   88.8424    8.3869 C.ar    1  UNL1        0.1517
      8 O          61.1379   90.1653    8.7011 O.3     1  UNL1       -0.4721
      9 C          61.9882   90.3172    9.9274 C.3     1  UNL1        0.2295
     10 C          62.2049   89.1464   10.8396 C.3     1  UNL1        0.1397
     11 C          59.4373   89.8613    6.2484 C.ar    1  UNL1        0.0060
     12 C          58.0512   90.3864    6.0184 C.ar    1  UNL1        0.0003
     13 C          57.8346   91.5573    5.1061 C.ar    1  UNL1        0.0031
     14 C          59.0040   92.2030    4.4239 C.ar    1  UNL1        0.0372
     15 C          60.3901   91.6779    4.6540 C.ar    1  UNL1        0.1468
     16 C          60.6067   90.5070    5.5662 C.ar    1  UNL1        0.0373
     17 O          61.5596   92.3236    3.9718 O.3     1  UNL1       -0.4045
     18 C          61.8129   92.0685    2.5155 C.3     1  UNL1        0.5753
     19 F          62.0663   91.8133    1.0592 F       1  UNL1       -0.1328
     20 F          62.7898   90.9883    2.8747 F       1  UNL1       -0.1328
     21 F          60.8361   93.1486    2.1563 F       1  UNL1       -0.1328
     22 C          63.0552   89.2984   12.0660 C.ar    1  UNL1        0.0023
     23 C          63.3817   88.0990   12.9056 C.ar    1  UNL1       -0.0024
     24 C          64.2320   88.2511   14.1319 C.ar    1  UNL1        0.0028
     25 C          64.7558   89.6024   14.5186 C.ar    1  UNL1        0.0371
     26 C          64.4293   90.8017   13.6790 C.ar    1  UNL1        0.1439
     27 C          63.5790   90.6497   12.4527 C.ar    1  UNL1        0.0345
     28 O          64.9531   92.1531   14.0656 O.3     1  UNL1       -0.4263
     29 C          66.3445   92.2909   14.6086 C.3     1  UNL1        0.4723
     30 F          66.9040   91.8788   13.2793 F       1  UNL1       -0.1579
     31 F          65.7850   92.7030   15.9379 F       1  UNL1       -0.1579
     32 C          67.7361   92.4287   15.1515 C.3     1  UNL1        0.4202
     33 F          67.9471   92.7432   16.6029 F       1  UNL1       -0.1876
     34 F          68.9165   92.2520   14.2430 F       1  UNL1       -0.1876
     35 C          61.7879   86.6527   11.4378 C.3     1  UNL1        0.1294
     36 O          62.9480   85.3525    9.5106 O.3     1  UNL1       -0.3756
     37 C          62.5522   85.4562   10.9537 C.3     1  UNL1        0.2260
     38 H          62.6345   86.1360    9.0323 H       1  UNL1        0.2107
     39 C          62.9206   84.3633   11.9128 C.3     1  UNL1        0.4235
     40 F          63.2891   83.2705   12.8720 F       1  UNL1       -0.1674
     41 F          62.0855   85.0142   12.9753 F       1  UNL1       -0.1674
     42 F          63.7558   83.7124   10.8504 F       1  UNL1       -0.1674
@<TRIPOS>BOND
     1    37    36    1
     2    37    35    1
     3    35     1    1
     4     1     2    1
     5     2     3   ar
     6     3     4   ar
     7     4     5   ar
     8     5     6   ar
     9     6    11    1
    10    11    12   ar
    11    12    13   ar
    12    13    14   ar
    13    14    15   ar
    14    15    17    1
    15    17    18    1
    16    18    19    1
    17    18    20    1
    18    18    21    1
    19    15    16   ar
    20     6     7   ar
    21     7     8    1
    22     8     9    1
    23     9    10    1
    24    10    22    1
    25    22    23   ar
    26    23    24   ar
    27    24    25   ar
    28    25    26   ar
    29    26    28    1
    30    28    29    1
    31    29    30    1
    32    29    31    1
    33    29    32    1
    34    32    33    1
    35    32    34    1
    36    26    27   ar
    37    37    39    1
    38    39    40    1
    39    39    41    1
    40    39    42    1
    41    10     1    1
    42    27    22   ar
    43     7     2   ar
    44    16    11   ar
    45    36    38    1
