@<TRIPOS>MOLECULE
*****
 30 34 0 0 0
SMALL
GASTEIGER

@<TRIPOS>ATOM
      1 C          62.2807   87.7528   11.6782 C.ar    1  UNL1        0.0389
      2 C          63.1217   87.1892   12.7849 C.ar    1  UNL1        0.0026
      3 C          63.4057   85.7172   12.8360 C.ar    1  UNL1        0.0177
      4 C          64.2468   85.1536   13.9427 C.ar    1  UNL1        0.0038
      5 C          64.5307   83.6816   13.9937 C.ar    1  UNL1        0.0297
      6 C          63.9735   82.7732   12.9380 C.ar    1  UNL1        0.1416
      7 F          64.2575   81.3012   12.9891 F       1  UNL1       -0.2041
      8 C          63.1324   83.3369   11.8313 C.ar    1  UNL1        0.0487
      9 C          62.8485   84.8088   11.7803 C.ar    1  UNL1        0.0835
     10 N          62.0074   85.3725   10.6735 N.ar    1  UNL1       -0.2440
     11 C          61.7235   86.8445   10.6225 C.ar    1  UNL1        0.0985
     12 C          60.8824   87.4082    9.5158 C.ar    1  UNL1        0.0987
     13 C          59.9588   86.5122    8.7448 C.ar    1  UNL1        0.0207
     14 C          59.1177   87.0759    7.6381 C.ar    1  UNL1        0.0032
     15 C          59.2002   88.5354    7.3024 C.ar    1  UNL1        0.0207
     16 C          60.1237   89.4314    8.0733 C.ar    1  UNL1        0.0989
     17 N          60.9648   88.8678    9.1800 N.ar    1  UNL1       -0.2423
     18 C          60.6337   89.7386   11.9851 C.3     1  UNL1        0.0557
     19 C          61.9967   89.2249   11.6271 C.3     1  UNL1        0.1808
     20 N          63.0758   90.1831   11.2181 N.pl3   1  UNL1       -0.2199
     21 H          63.2438   90.3571   10.2638 H       1  UNL1        0.2922
     22 C          63.8990   90.8762   12.2631 C.2     1  UNL1        0.3369
     23 N          63.7910   90.4606   13.7003 N.2     1  UNL1        0.0113
     24 C          64.6141   91.1537   14.7454 C.2     1  UNL1        0.4718
     25 N          65.5453   92.2624   14.3532 N.2     1  UNL1        0.0177
     26 C          65.6532   92.6779   12.9159 C.2     1  UNL1        0.3919
     27 N          66.4782   93.7291   12.2343 N.2     1  UNL1       -0.0102
     28 C          66.1649   93.6856   10.7680 C.2     1  UNL1        0.3354
     29 N          65.1463   92.6076   10.5434 N.2     1  UNL1       -0.2031
     30 C          64.8301   91.9849   11.8709 C.3     1  UNL1        0.3227
@<TRIPOS>BOND
     1    19    18    1
     2    19    20    1
     3    20    22    1
     4    22    23    2
     5    23    24    1
     6    24    25    2
     7    25    26    1
     8    26    27    2
     9    27    28    1
    10    28    29    2
    11    29    30    1
    12    19     1    1
    13     1     2   ar
    14     2     3   ar
    15     3     4   ar
    16     4     5   ar
    17     5     6   ar
    18     6     7    1
    19     6     8   ar
    20     8     9   ar
    21     9    10   ar
    22    10    11   ar
    23    11    12    1
    24    12    13   ar
    25    13    14   ar
    26    14    15   ar
    27    15    16   ar
    28    16    17   ar
    29    30    22    1
    30    11     1   ar
    31    17    12   ar
    32    30    26    1
    33     9     3   ar
    34    20    21    1
@<TRIPOS>MOLECULE
*****
 30 34 0 0 0
SMALL
GASTEIGER

@<TRIPOS>ATOM
      1 C          63.5877   87.9239   13.5049 C.ar    1  UNL1        0.0389
      2 C          64.3647   86.9164   14.2994 C.ar    1  UNL1        0.0026
      3 C          64.2361   85.4547   13.9877 C.ar    1  UNL1        0.0177
      4 C          65.0131   84.4473   14.7823 C.ar    1  UNL1        0.0038
      5 C          64.8845   82.9857   14.4705 C.ar    1  UNL1        0.0297
      6 C          63.9790   82.5316   13.3643 C.ar    1  UNL1        0.1416
      7 F          63.8504   81.0699   13.0526 F       1  UNL1       -0.2041
      8 C          63.2020   83.5390   12.5697 C.ar    1  UNL1        0.0487
      9 C          63.3306   85.0006   12.8814 C.ar    1  UNL1        0.0835
     10 N          62.5537   86.0082   12.0869 N.ar    1  UNL1       -0.2440
     11 C          62.6822   87.4697   12.3986 C.ar    1  UNL1        0.0985
     12 C          61.9053   88.4773   11.6040 C.ar    1  UNL1        0.0987
     13 C          62.3267   88.8153   10.2047 C.ar    1  UNL1        0.0207
     14 C          61.5498   89.8228    9.4101 C.ar    1  UNL1        0.0032
     15 C          60.3515   90.4923   10.0149 C.ar    1  UNL1        0.0207
     16 C          59.9301   90.1543   11.4143 C.ar    1  UNL1        0.0989
     17 N          60.7070   89.1468   12.2088 N.ar    1  UNL1       -0.2423
     18 C          63.2347   89.9166   15.1341 C.3     1  UNL1        0.0557
     19 C          63.7163   89.3855   13.8166 C.3     1  UNL1        0.1808
     20 N          64.3264   90.3161   12.8106 N.pl3   1  UNL1       -0.2199
     21 H          64.1120   90.2169   11.8549 H       1  UNL1        0.2922
     22 C          65.2632   91.3976   13.2609 C.2     1  UNL1        0.3369
     23 N          65.9128   91.3133   14.6103 N.2     1  UNL1        0.0113
     24 C          66.8496   92.3948   15.0606 C.2     1  UNL1        0.4718
     25 N          67.1368   93.5606   14.1614 N.2     1  UNL1        0.0177
     26 C          66.4871   93.6449   12.8120 C.2     1  UNL1        0.3919
     27 N          66.5776   94.6655   11.7165 N.2     1  UNL1       -0.0102
     28 C          65.6968   94.2147   10.5891 C.2     1  UNL1        0.3354
     29 N          65.0619   92.9155   10.9879 N.2     1  UNL1       -0.2031
     30 C          65.5504   92.5633   12.3617 C.3     1  UNL1        0.3227
@<TRIPOS>BOND
     1    19    18    1
     2    19    20    1
     3    20    22    1
     4    22    23    2
     5    23    24    1
     6    24    25    2
     7    25    26    1
     8    26    27    2
     9    27    28    1
    10    28    29    2
    11    29    30    1
    12    19     1    1
    13     1     2   ar
    14     2     3   ar
    15     3     4   ar
    16     4     5   ar
    17     5     6   ar
    18     6     7    1
    19     6     8   ar
    20     8     9   ar
    21     9    10   ar
    22    10    11   ar
    23    11    12    1
    24    12    13   ar
    25    13    14   ar
    26    14    15   ar
    27    15    16   ar
    28    16    17   ar
    29    30    22    1
    30    11     1   ar
    31    17    12   ar
    32    30    26    1
    33     9     3   ar
    34    20    21    1
@<TRIPOS>MOLECULE
*****
 30 34 0 0 0
SMALL
GASTEIGER

@<TRIPOS>ATOM
      1 C          62.6144   87.9132   11.6671 C.ar    1  UNL1        0.0389
      2 C          63.4989   87.8575   12.8772 C.ar    1  UNL1        0.0026
      3 C          63.7264   86.5522   13.5806 C.ar    1  UNL1        0.0177
      4 C          64.6109   86.4966   14.7907 C.ar    1  UNL1        0.0038
      5 C          64.8383   85.1914   15.4941 C.ar    1  UNL1        0.0297
      6 C          64.1812   83.9419   14.9872 C.ar    1  UNL1        0.1416
      7 F          64.4086   82.6366   15.6906 F       1  UNL1       -0.2041
      8 C          63.2966   83.9975   13.7771 C.ar    1  UNL1        0.0487
      9 C          63.0692   85.3027   13.0738 C.ar    1  UNL1        0.0835
     10 N          62.1847   85.3584   11.8636 N.ar    1  UNL1       -0.2440
     11 C          61.9573   86.6636   11.1603 C.ar    1  UNL1        0.0985
     12 C          61.0727   86.7193    9.9501 C.ar    1  UNL1        0.0987
     13 C          61.4535   85.9701    8.7076 C.ar    1  UNL1        0.0207
     14 C          60.5690   86.0258    7.4975 C.ar    1  UNL1        0.0032
     15 C          59.3037   86.8307    7.5298 C.ar    1  UNL1        0.0207
     16 C          58.9229   87.5799    8.7722 C.ar    1  UNL1        0.0989
     17 N          59.8074   87.5242    9.9823 N.ar    1  UNL1       -0.2423
     18 C          62.2005   89.2459    9.4756 C.3     1  UNL1        0.0557
     19 C          62.3869   89.2184   10.9637 C.3     1  UNL1        0.1808
     20 N          62.3459   90.4961   11.7485 N.pl3   1  UNL1       -0.2199
     21 H          61.4930   90.8185   12.1198 H       1  UNL1        0.2922
     22 C          63.6043   91.2824   11.9675 C.2     1  UNL1        0.3369
     23 N          64.3389   91.8637   10.7960 N.2     1  UNL1        0.0113
     24 C          65.5974   92.6501   11.0150 C.2     1  UNL1        0.4718
     25 N          66.1212   92.8552   12.4056 N.2     1  UNL1        0.0177
     26 C          65.3865   92.2739   13.5771 C.2     1  UNL1        0.3919
     27 N          65.6596   92.3104   15.0515 N.2     1  UNL1       -0.0102
     28 C          64.5699   91.5466   15.7438 C.2     1  UNL1        0.3354
     29 N          63.6234   91.0380   14.6972 N.2     1  UNL1       -0.2031
     30 C          64.1281   91.4876   13.3581 C.3     1  UNL1        0.3227
@<TRIPOS>BOND
     1    19    18    1
     2    19    20    1
     3    20    22    1
     4    22    23    2
     5    23    24    1
     6    24    25    2
     7    25    26    1
     8    26    27    2
     9    27    28    1
    10    28    29    2
    11    29    30    1
    12    19     1    1
    13     1     2   ar
    14     2     3   ar
    15     3     4   ar
    16     4     5   ar
    17     5     6   ar
    18     6     7    1
    19     6     8   ar
    20     8     9   ar
    21     9    10   ar
    22    10    11   ar
    23    11    12    1
    24    12    13   ar
    25    13    14   ar
    26    14    15   ar
    27    15    16   ar
    28    16    17   ar
    29    30    22    1
    30    11     1   ar
    31    17    12   ar
    32    30    26    1
    33     9     3   ar
    34    20    21    1
@<TRIPOS>MOLECULE
*****
 30 34 0 0 0
SMALL
GASTEIGER

@<TRIPOS>ATOM
      1 C          62.1797   87.7314   11.5107 C.ar    1  UNL1        0.0389
      2 C          63.0356   87.1966   12.6204 C.ar    1  UNL1        0.0026
      3 C          63.3374   85.7291   12.6942 C.ar    1  UNL1        0.0177
      4 C          64.1933   85.1943   13.8038 C.ar    1  UNL1        0.0038
      5 C          64.4950   83.7268   13.8775 C.ar    1  UNL1        0.0297
      6 C          63.9409   82.7942   12.8416 C.ar    1  UNL1        0.1416
      7 F          64.2427   81.3267   12.9154 F       1  UNL1       -0.2041
      8 C          63.0850   83.3290   11.7319 C.ar    1  UNL1        0.0487
      9 C          62.7833   84.7964   11.6582 C.ar    1  UNL1        0.0835
     10 N          61.9274   85.3313   10.5485 N.ar    1  UNL1       -0.2440
     11 C          61.6256   86.7988   10.4748 C.ar    1  UNL1        0.0985
     12 C          60.7697   87.3337    9.3651 C.ar    1  UNL1        0.0987
     13 C          59.8859   86.4056    8.5856 C.ar    1  UNL1        0.0207
     14 C          59.0300   86.9404    7.4760 C.ar    1  UNL1        0.0032
     15 C          59.0579   88.4033    7.1458 C.ar    1  UNL1        0.0207
     16 C          59.9417   89.3314    7.9253 C.ar    1  UNL1        0.0989
     17 N          60.7976   88.7966    9.0349 N.ar    1  UNL1       -0.2423
     18 C          60.6382   89.7431   12.0827 C.3     1  UNL1        0.0557
     19 C          61.8779   89.1989   11.4370 C.3     1  UNL1        0.1808
     20 N          62.8159   90.1223   10.7175 N.pl3   1  UNL1       -0.2199
     21 H          62.8254   90.1454    9.7333 H       1  UNL1        0.2922
     22 C          63.7393   91.0104   11.4975 C.2     1  UNL1        0.3369
     23 N          64.5821   92.0263   10.7851 N.2     1  UNL1        0.0113
     24 C          65.5057   92.9145   11.5651 C.2     1  UNL1        0.4718
     25 N          65.5863   92.7867   13.0575 N.2     1  UNL1        0.0177
     26 C          64.7434   91.7707   13.7698 C.2     1  UNL1        0.3919
     27 N          64.6103   91.4172   15.2214 N.2     1  UNL1       -0.0102
     28 C          63.6046   90.3105   15.3386 C.2     1  UNL1        0.3354
     29 N          63.1161   89.9801   13.9594 N.2     1  UNL1       -0.2031
     30 C          63.8200   90.8826   12.9898 C.3     1  UNL1        0.3227
@<TRIPOS>BOND
     1    19    18    1
     2    19    20    1
     3    20    22    1
     4    22    23    2
     5    23    24    1
     6    24    25    2
     7    25    26    1
     8    26    27    2
     9    27    28    1
    10    28    29    2
    11    29    30    1
    12    19     1    1
    13     1     2   ar
    14     2     3   ar
    15     3     4   ar
    16     4     5   ar
    17     5     6   ar
    18     6     7    1
    19     6     8   ar
    20     8     9   ar
    21     9    10   ar
    22    10    11   ar
    23    11    12    1
    24    12    13   ar
    25    13    14   ar
    26    14    15   ar
    27    15    16   ar
    28    16    17   ar
    29    30    22    1
    30    11     1   ar
    31    17    12   ar
    32    30    26    1
    33     9     3   ar
    34    20    21    1
@<TRIPOS>MOLECULE
*****
 30 34 0 0 0
SMALL
GASTEIGER

@<TRIPOS>ATOM
      1 C          62.8990   86.5134   11.8925 C.ar    1  UNL1        0.0389
      2 C          62.9691   87.9926   11.6540 C.ar    1  UNL1        0.0026
      3 C          63.5555   88.8940   12.6999 C.ar    1  UNL1        0.0177
      4 C          63.6255   90.3733   12.4615 C.ar    1  UNL1        0.0038
      5 C          64.2118   91.2745   13.5073 C.ar    1  UNL1        0.0297
      6 C          64.7281   90.6966   14.7916 C.ar    1  UNL1        0.1416
      7 F          65.3144   91.5980   15.8375 F       1  UNL1       -0.2041
      8 C          64.6580   89.2173   15.0301 C.ar    1  UNL1        0.0487
      9 C          64.0717   88.3161   13.9842 C.ar    1  UNL1        0.0835
     10 N          64.0016   86.8367   14.2226 N.ar    1  UNL1       -0.2440
     11 C          63.4153   85.9355   13.1768 C.ar    1  UNL1        0.0985
     12 C          63.3452   84.4561   13.4152 C.ar    1  UNL1        0.0987
     13 C          62.2137   83.8777   14.2121 C.ar    1  UNL1        0.0207
     14 C          62.1436   82.3984   14.4505 C.ar    1  UNL1        0.0032
     15 C          63.2050   81.4977   13.8920 C.ar    1  UNL1        0.0207
     16 C          64.3365   82.0761   13.0951 C.ar    1  UNL1        0.0989
     17 N          64.4067   83.5553   12.8567 N.ar    1  UNL1       -0.2423
     18 C          63.1636   84.5583   10.2020 C.3     1  UNL1        0.0557
     19 C          62.3127   85.6120   10.8466 C.3     1  UNL1        0.1808
     20 N          60.8754   85.7645   10.4453 N.pl3   1  UNL1       -0.2199
     21 H          60.2129   85.0910   10.7222 H       1  UNL1        0.2922
     22 C          60.4476   86.9432    9.6221 C.2     1  UNL1        0.3369
     23 N          60.3299   86.8144    8.1323 N.2     1  UNL1        0.0113
     24 C          59.9020   87.9931    7.3091 C.2     1  UNL1        0.4718
     25 N          59.5918   89.3005    7.9757 N.2     1  UNL1        0.0177
     26 C          59.7095   89.4293    9.4656 C.2     1  UNL1        0.3919
     27 N          59.4716   90.5821   10.3952 N.2     1  UNL1       -0.0102
     28 C          59.7524   90.1159   11.7930 C.2     1  UNL1        0.3354
     29 N          60.1639   88.6750   11.7272 N.2     1  UNL1       -0.2031
     30 C          60.1374   88.2506   10.2888 C.3     1  UNL1        0.3227
@<TRIPOS>BOND
     1    19    18    1
     2    19    20    1
     3    20    22    1
     4    22    23    2
     5    23    24    1
     6    24    25    2
     7    25    26    1
     8    26    27    2
     9    27    28    1
    10    28    29    2
    11    29    30    1
    12    19     1    1
    13     1     2   ar
    14     2     3   ar
    15     3     4   ar
    16     4     5   ar
    17     5     6   ar
    18     6     7    1
    19     6     8   ar
    20     8     9   ar
    21     9    10   ar
    22    10    11   ar
    23    11    12    1
    24    12    13   ar
    25    13    14   ar
    26    14    15   ar
    27    15    16   ar
    28    16    17   ar
    29    30    22    1
    30    11     1   ar
    31    17    12   ar
    32    30    26    1
    33     9     3   ar
    34    20    21    1
@<TRIPOS>MOLECULE
*****
 30 34 0 0 0
SMALL
GASTEIGER

@<TRIPOS>ATOM
      1 C          63.3528   85.4432   12.6113 C.ar    1  UNL1        0.0389
      2 C          63.3276   86.8977   12.2456 C.ar    1  UNL1        0.0026
      3 C          62.3744   87.3913   11.1978 C.ar    1  UNL1        0.0177
      4 C          62.3493   88.8458   10.8321 C.ar    1  UNL1        0.0038
      5 C          61.3962   89.3393    9.7843 C.ar    1  UNL1        0.0297
      6 C          60.4681   88.3783    9.1022 C.ar    1  UNL1        0.1416
      7 F          59.5149   88.8718    8.0543 F       1  UNL1       -0.2041
      8 C          60.4933   86.9238    9.4679 C.ar    1  UNL1        0.0487
      9 C          61.4464   86.4303   10.5157 C.ar    1  UNL1        0.0835
     10 N          61.4716   84.9757   10.8814 N.ar    1  UNL1       -0.2440
     11 C          62.4247   84.4822   11.9292 C.ar    1  UNL1        0.0985
     12 C          62.4499   83.0277   12.2950 C.ar    1  UNL1        0.0987
     13 C          63.0380   82.0258   11.3461 C.ar    1  UNL1        0.0207
     14 C          63.0632   80.5713   11.7118 C.ar    1  UNL1        0.0032
     15 C          62.5002   80.1187   13.0264 C.ar    1  UNL1        0.0207
     16 C          61.9121   81.1205   13.9753 C.ar    1  UNL1        0.0989
     17 N          61.8869   82.5750   13.6096 N.ar    1  UNL1       -0.2423
     18 C          64.6179   83.4859   13.7596 C.3     1  UNL1        0.0557
     19 C          64.3059   84.9497   13.6592 C.3     1  UNL1        0.1808
     20 N          64.9471   85.9199   14.6066 N.pl3   1  UNL1       -0.2199
     21 H          65.9068   86.1246   14.5269 H       1  UNL1        0.2922
     22 C          64.1261   86.5783   15.6754 C.2     1  UNL1        0.3369
     23 N          63.5007   85.7496   16.7579 N.2     1  UNL1        0.0113
     24 C          62.6796   86.4080   17.8268 C.2     1  UNL1        0.4718
     25 N          62.4840   87.8951   17.8131 N.2     1  UNL1        0.0177
     26 C          63.1095   88.7239   16.7304 C.2     1  UNL1        0.3919
     27 N          63.0918   90.1989   16.4588 N.2     1  UNL1       -0.0102
     28 C          63.9020   90.4522   15.2220 C.2     1  UNL1        0.3354
     29 N          64.4203   89.1336   14.7293 N.2     1  UNL1       -0.2031
     30 C          63.9305   88.0654   15.6616 C.3     1  UNL1        0.3227
@<TRIPOS>BOND
     1    19    18    1
     2    19    20    1
     3    20    22    1
     4    22    23    2
     5    23    24    1
     6    24    25    2
     7    25    26    1
     8    26    27    2
     9    27    28    1
    10    28    29    2
    11    29    30    1
    12    19     1    1
    13     1     2   ar
    14     2     3   ar
    15     3     4   ar
    16     4     5   ar
    17     5     6   ar
    18     6     7    1
    19     6     8   ar
    20     8     9   ar
    21     9    10   ar
    22    10    11   ar
    23    11    12    1
    24    12    13   ar
    25    13    14   ar
    26    14    15   ar
    27    15    16   ar
    28    16    17   ar
    29    30    22    1
    30    11     1   ar
    31    17    12   ar
    32    30    26    1
    33     9     3   ar
    34    20    21    1
@<TRIPOS>MOLECULE
*****
 30 34 0 0 0
SMALL
GASTEIGER

@<TRIPOS>ATOM
      1 C          63.1515   87.4809   12.6953 C.ar    1  UNL1        0.0389
      2 C          62.5039   86.6019   11.6667 C.ar    1  UNL1        0.0026
      3 C          61.6812   87.2111   10.5703 C.ar    1  UNL1        0.0177
      4 C          61.0336   86.3322    9.5417 C.ar    1  UNL1        0.0038
      5 C          60.2110   86.9414    8.4454 C.ar    1  UNL1        0.0297
      6 C          60.0360   88.4296    8.3775 C.ar    1  UNL1        0.1416
      7 F          59.2134   89.0388    7.2810 F       1  UNL1       -0.2041
      8 C          60.6836   89.3086    9.4060 C.ar    1  UNL1        0.0487
      9 C          61.5062   88.6993   10.5024 C.ar    1  UNL1        0.0835
     10 N          62.1539   89.5783   11.5310 N.ar    1  UNL1       -0.2440
     11 C          62.9765   88.9691   12.6274 C.ar    1  UNL1        0.0985
     12 C          63.6242   89.8481   13.6560 C.ar    1  UNL1        0.0987
     13 C          64.9441   90.4980   13.3633 C.ar    1  UNL1        0.0207
     14 C          65.5918   91.3769   14.3918 C.ar    1  UNL1        0.0032
     15 C          64.9196   91.6060   15.7130 C.ar    1  UNL1        0.0207
     16 C          63.5998   90.9561   16.0057 C.ar    1  UNL1        0.0989
     17 N          62.9521   90.0771   14.9772 N.ar    1  UNL1       -0.2423
     18 C          64.1620   87.6071   15.0854 C.3     1  UNL1        0.0557
     19 C          63.9742   86.8717   13.7917 C.3     1  UNL1        0.1808
     20 N          64.6089   85.5270   13.5944 N.pl3   1  UNL1       -0.2199
     21 H          65.5776   85.4589   13.4325 H       1  UNL1        0.2922
     22 C          63.7677   84.2861   13.6437 C.2     1  UNL1        0.3369
     23 N          62.9599   83.9758   14.8689 N.2     1  UNL1        0.0113
     24 C          62.1186   82.7348   14.9182 C.2     1  UNL1        0.4718
     25 N          62.0853   81.8042   13.7423 N.2     1  UNL1        0.0177
     26 C          62.8932   82.1145   12.5171 C.2     1  UNL1        0.3919
     27 N          63.0584   81.3903   11.2140 N.2     1  UNL1       -0.0102
     28 C          64.0018   82.1837   10.3592 C.2     1  UNL1        0.3354
     29 N          64.4195   83.3982   11.1341 N.2     1  UNL1       -0.2031
     30 C          63.7343   83.3554   12.4678 C.3     1  UNL1        0.3227
@<TRIPOS>BOND
     1    19    18    1
     2    19    20    1
     3    20    22    1
     4    22    23    2
     5    23    24    1
     6    24    25    2
     7    25    26    1
     8    26    27    2
     9    27    28    1
    10    28    29    2
    11    29    30    1
    12    19     1    1
    13     1     2   ar
    14     2     3   ar
    15     3     4   ar
    16     4     5   ar
    17     5     6   ar
    18     6     7    1
    19     6     8   ar
    20     8     9   ar
    21     9    10   ar
    22    10    11   ar
    23    11    12    1
    24    12    13   ar
    25    13    14   ar
    26    14    15   ar
    27    15    16   ar
    28    16    17   ar
    29    30    22    1
    30    11     1   ar
    31    17    12   ar
    32    30    26    1
    33     9     3   ar
    34    20    21    1
@<TRIPOS>MOLECULE
*****
 30 34 0 0 0
SMALL
GASTEIGER

@<TRIPOS>ATOM
      1 C          63.2777   86.7727   12.9362 C.ar    1  UNL1        0.0389
      2 C          63.9582   85.5786   13.5371 C.ar    1  UNL1        0.0026
      3 C          63.6626   84.2044   13.0132 C.ar    1  UNL1        0.0177
      4 C          64.3431   83.0103   13.6141 C.ar    1  UNL1        0.0038
      5 C          64.0475   81.6362   13.0902 C.ar    1  UNL1        0.0297
      6 C          63.0714   81.4562   11.9656 C.ar    1  UNL1        0.1416
      7 F          62.7758   80.0821   11.4418 F       1  UNL1       -0.2041
      8 C          62.3909   82.6503   11.3648 C.ar    1  UNL1        0.0487
      9 C          62.6865   84.0244   11.8886 C.ar    1  UNL1        0.0835
     10 N          62.0060   85.2186   11.2878 N.ar    1  UNL1       -0.2440
     11 C          62.3016   86.5927   11.8116 C.ar    1  UNL1        0.0985
     12 C          61.6211   87.7869   11.2108 C.ar    1  UNL1        0.0987
     13 C          62.1074   88.3510    9.9087 C.ar    1  UNL1        0.0207
     14 C          61.4270   89.5451    9.3079 C.ar    1  UNL1        0.0032
     15 C          60.2603   90.1751   10.0091 C.ar    1  UNL1        0.0207
     16 C          59.7740   89.6111   11.3112 C.ar    1  UNL1        0.0989
     17 N          60.4544   88.4169   11.9120 N.ar    1  UNL1       -0.2423
     18 C          64.4918   88.3209   14.6331 C.3     1  UNL1        0.0557
     19 C          63.5733   88.1469   13.4601 C.3     1  UNL1        0.1808
     20 N          62.9504   89.3470   12.8108 N.pl3   1  UNL1       -0.2199
     21 H          61.9880   89.3504   12.6032 H       1  UNL1        0.2922
     22 C          63.7936   90.5420   12.4779 C.2     1  UNL1        0.3369
     23 N          63.9443   90.9795   11.0510 N.2     1  UNL1        0.0113
     24 C          64.7876   92.1745   10.7180 C.2     1  UNL1        0.4718
     25 N          65.4802   92.9320   11.8119 N.2     1  UNL1        0.0177
     26 C          65.3295   92.4945   13.2388 C.2     1  UNL1        0.3919
     27 N          65.8876   93.0394   14.5199 N.2     1  UNL1       -0.0102
     28 C          65.3893   92.1812   15.6448 C.2     1  UNL1        0.3354
     29 N          64.5232   91.1059   15.0587 N.2     1  UNL1       -0.2031
     30 C          64.4862   91.2995   13.5717 C.3     1  UNL1        0.3227
@<TRIPOS>BOND
     1    19    18    1
     2    19    20    1
     3    20    22    1
     4    22    23    2
     5    23    24    1
     6    24    25    2
     7    25    26    1
     8    26    27    2
     9    27    28    1
    10    28    29    2
    11    29    30    1
    12    19     1    1
    13     1     2   ar
    14     2     3   ar
    15     3     4   ar
    16     4     5   ar
    17     5     6   ar
    18     6     7    1
    19     6     8   ar
    20     8     9   ar
    21     9    10   ar
    22    10    11   ar
    23    11    12    1
    24    12    13   ar
    25    13    14   ar
    26    14    15   ar
    27    15    16   ar
    28    16    17   ar
    29    30    22    1
    30    11     1   ar
    31    17    12   ar
    32    30    26    1
    33     9     3   ar
    34    20    21    1
@<TRIPOS>MOLECULE
*****
 30 34 0 0 0
SMALL
GASTEIGER

@<TRIPOS>ATOM
      1 C          62.7339   87.2975   12.3525 C.ar    1  UNL1        0.0389
      2 C          62.0655   86.4850   11.2834 C.ar    1  UNL1        0.0026
      3 C          61.3207   87.1700   10.1761 C.ar    1  UNL1        0.0177
      4 C          60.6524   86.3575    9.1070 C.ar    1  UNL1        0.0038
      5 C          59.9076   87.0425    7.9997 C.ar    1  UNL1        0.0297
      6 C          59.8313   88.5401    7.9616 C.ar    1  UNL1        0.1416
      7 F          59.0865   89.2251    6.8543 F       1  UNL1       -0.2041
      8 C          60.4996   89.3526    9.0307 C.ar    1  UNL1        0.0487
      9 C          61.2444   88.6676   10.1379 C.ar    1  UNL1        0.0835
     10 N          61.9128   89.4801   11.2071 N.ar    1  UNL1       -0.2440
     11 C          62.6576   88.7951   12.3144 C.ar    1  UNL1        0.0985
     12 C          63.3260   89.6076   13.3835 C.ar    1  UNL1        0.0987
     13 C          64.5632   90.3936   13.0649 C.ar    1  UNL1        0.0207
     14 C          65.2317   91.2061   14.1340 C.ar    1  UNL1        0.0032
     15 C          64.6629   91.2326   15.5217 C.ar    1  UNL1        0.0207
     16 C          63.4256   90.4467   15.8403 C.ar    1  UNL1        0.0989
     17 N          62.7572   89.6342   14.7712 N.ar    1  UNL1       -0.2423
     18 C          64.6329   87.3013   14.1257 C.3     1  UNL1        0.0557
     19 C          63.4787   86.6125   13.4598 C.3     1  UNL1        0.1808
     20 N          63.0693   85.2386   13.9013 N.pl3   1  UNL1       -0.2199
     21 H          62.5994   85.1164   14.7577 H       1  UNL1        0.2922
     22 C          63.3756   84.0510   13.0378 C.2     1  UNL1        0.3369
     23 N          64.3198   84.1889   11.8804 N.2     1  UNL1        0.0113
     24 C          64.6262   83.0012   11.0168 C.2     1  UNL1        0.4718
     25 N          63.9884   81.6757   11.3107 N.2     1  UNL1        0.0177
     26 C          63.0443   81.5379   12.4682 C.2     1  UNL1        0.3919
     27 N          62.2704   80.3674   12.9982 N.2     1  UNL1       -0.0102
     28 C          61.4857   80.8316   14.1893 C.2     1  UNL1        0.3354
     29 N          61.7746   82.2890   14.3954 N.2     1  UNL1       -0.2031
     30 C          62.7379   82.7255   13.3317 C.3     1  UNL1        0.3227
@<TRIPOS>BOND
     1    19    18    1
     2    19    20    1
     3    20    22    1
     4    22    23    2
     5    23    24    1
     6    24    25    2
     7    25    26    1
     8    26    27    2
     9    27    28    1
    10    28    29    2
    11    29    30    1
    12    19     1    1
    13     1     2   ar
    14     2     3   ar
    15     3     4   ar
    16     4     5   ar
    17     5     6   ar
    18     6     7    1
    19     6     8   ar
    20     8     9   ar
    21     9    10   ar
    22    10    11   ar
    23    11    12    1
    24    12    13   ar
    25    13    14   ar
    26    14    15   ar
    27    15    16   ar
    28    16    17   ar
    29    30    22    1
    30    11     1   ar
    31    17    12   ar
    32    30    26    1
    33     9     3   ar
    34    20    21    1
