@<TRIPOS>MOLECULE
*****
 33 37 0 0 0
SMALL
GASTEIGER

@<TRIPOS>ATOM
      1 C          61.9553   86.7164    9.3053 C.3     1  UNL1        0.0920
      2 C          60.7419   87.1253    8.5239 C.3     1  UNL1        0.0429
      3 C          60.1777   88.3623    9.1574 C.3     1  UNL1        0.0985
      4 N          61.0423   88.7180   10.3304 N.am    1  UNL1       -0.2443
      5 C          60.8432   89.8859   11.2505 C.2     1  UNL1        0.4048
      6 O          59.6929   90.8239   11.0338 O.2     1  UNL1       -0.2262
      7 C          62.1409   87.7008   10.4219 C.3     1  UNL1        0.1162
      8 N          62.8295   85.5313    9.0203 N.pl3   1  UNL1       -0.3180
      9 H          63.2685   85.4430    8.1436 H       1  UNL1        0.1482
     10 C          63.4455   82.3797   12.1727 C.ar    1  UNL1        0.0877
     11 C          64.1175   82.2471   10.8383 C.ar    1  UNL1        0.0147
     12 C          63.9122   83.2976    9.7874 C.ar    1  UNL1        0.0348
     13 C          63.0348   84.4808   10.0712 C.ar    1  UNL1        0.1286
     14 N          62.3629   84.6134   11.4057 N.ar    1  UNL1       -0.2287
     15 C          62.5682   83.5630   12.4564 C.ar    1  UNL1        0.1105
     16 N          63.8562   80.2787   14.2744 N.1     1  UNL1       -0.1908
     17 C          63.6509   81.3292   13.2236 C.1     1  UNL1        0.1020
     18 O          61.7945   90.1157   12.3873 O.3     1  UNL1       -0.4383
     19 C          63.0734   90.8645   12.1554 C.3     1  UNL1        0.1702
     20 C          64.0391   91.0673   13.2851 C.3     1  UNL1        0.0407
     21 C          64.3523   91.6132   11.9235 C.3     1  UNL1        0.0036
     22 C          65.6312   92.3619   11.6917 C.3     1  UNL1        0.0007
     23 C          64.6655   92.1591   10.5620 C.3     1  UNL1        0.0036
     24 C          63.3866   91.4104   10.7938 C.3     1  UNL1        0.0407
     25 C          65.9070   92.2170   12.7446 C.3     1  UNL1        0.0122
     26 C          66.2837   92.0189   14.1829 C.3     1  UNL1        0.0688
     27 C          66.5969   92.5648   12.8214 C.3     1  UNL1        0.0086
     28 C          65.0048   91.2702   14.4148 C.3     1  UNL1        0.0122
     29 C          67.2495   92.2218   15.3126 C.2     1  UNL1        0.2184
     30 N          68.6702   91.7602   15.1769 N.am    1  UNL1       -0.3288
     31 O          66.7945   92.8862   16.5781 O.2     1  UNL1       -0.2754
     32 H          68.9688   91.3241   14.3463 H       1  UNL1        0.1449
     33 H          69.3040   91.8933   15.9184 H       1  UNL1        0.1449
@<TRIPOS>BOND
     1    16    17    3
     2    17    10    1
     3    10    11   ar
     4    11    12   ar
     5    12    13   ar
     6    13     8    1
     7     1     8    1
     8     1     2    1
     9     2     3    1
    10     3     4    1
    11     4     5   am
    12     5     6    2
    13     5    18    1
    14    19    18    1
    15    19    20    1
    16    20    21    1
    17    21    22    1
    18    22    23    1
    19    23    24    1
    20    24    25    1
    21    25    26    1
    22    26    29    1
    23    29    30   am
    24    29    31    2
    25    26    27    1
    26    26    28    1
    27     4     7    1
    28    13    14   ar
    29    14    15   ar
    30    15    10   ar
    31     7     1    1
    32    24    19    1
    33    28    20    1
    34    27    22    1
    35     8     9    1
    36    30    32    1
    37    30    33    1
@<TRIPOS>MOLECULE
*****
 33 37 0 0 0
SMALL
GASTEIGER

@<TRIPOS>ATOM
      1 C          63.7891   83.3087   14.6340 C.3     1  UNL1        0.0920
      2 C          63.4012   81.8618   14.5562 C.3     1  UNL1        0.0429
      3 C          63.3439   81.4744   13.1082 C.3     1  UNL1        0.0985
      4 N          63.6965   82.6819   12.2911 N.am    1  UNL1       -0.2443
      5 C          63.7624   82.7447   10.7938 C.2     1  UNL1        0.4048
      6 O          63.4594   81.5231    9.9779 O.2     1  UNL1       -0.2262
      7 C          63.9717   83.8156   13.2340 C.3     1  UNL1        0.1162
      8 N          63.9639   84.1083   15.8910 N.pl3   1  UNL1       -0.3180
      9 H          64.1342   83.6506   16.7459 H       1  UNL1        0.1482
     10 C          63.7095   88.5990   15.7546 C.ar    1  UNL1        0.0877
     11 C          64.4550   87.8572   14.6851 C.ar    1  UNL1        0.0147
     12 C          64.5398   86.3603   14.7305 C.ar    1  UNL1        0.0348
     13 C          63.8790   85.6052   15.8456 C.ar    1  UNL1        0.1286
     14 N          63.1335   86.3470   16.9151 N.ar    1  UNL1       -0.2287
     15 C          63.0487   87.8438   16.8697 C.ar    1  UNL1        0.1105
     16 N          63.5398   91.5928   15.6637 N.1     1  UNL1       -0.1908
     17 C          63.6246   90.0959   15.7092 C.1     1  UNL1        0.1020
     18 O          64.1314   84.0292   10.1126 O.3     1  UNL1       -0.4383
     19 C          63.0645   84.8839    9.4950 C.3     1  UNL1        0.1702
     20 C          62.3763   85.9340   10.3158 C.3     1  UNL1        0.0407
     21 C          61.9978   85.7387    8.8775 C.3     1  UNL1        0.0036
     22 C          60.9310   86.5934    8.2600 C.3     1  UNL1        0.0007
     23 C          61.6193   85.5434    7.4393 C.3     1  UNL1        0.0036
     24 C          62.6861   84.6886    8.0568 C.3     1  UNL1        0.0407
     25 C          60.8000   87.1199    9.2148 C.3     1  UNL1        0.0122
     26 C          60.6212   87.8389   10.5190 C.3     1  UNL1        0.0688
     27 C          60.2427   87.6435    9.0808 C.3     1  UNL1        0.0086
     28 C          61.6880   86.9841   11.1365 C.3     1  UNL1        0.0122
     29 C          59.9329   88.8890   11.3397 C.2     1  UNL1        0.2184
     30 N          59.0317   88.4867   12.4692 N.am    1  UNL1       -0.3288
     31 O          60.1460   90.3413   11.0309 O.2     1  UNL1       -0.2754
     32 H          58.8918   87.5335   12.6719 H       1  UNL1        0.1449
     33 H          58.5799   89.1760   13.0079 H       1  UNL1        0.1449
@<TRIPOS>BOND
     1    16    17    3
     2    17    10    1
     3    10    11   ar
     4    11    12   ar
     5    12    13   ar
     6    13     8    1
     7     1     8    1
     8     1     2    1
     9     2     3    1
    10     3     4    1
    11     4     5   am
    12     5     6    2
    13     5    18    1
    14    19    18    1
    15    19    20    1
    16    20    21    1
    17    21    22    1
    18    22    23    1
    19    23    24    1
    20    24    25    1
    21    25    26    1
    22    26    29    1
    23    29    30   am
    24    29    31    2
    25    26    27    1
    26    26    28    1
    27     4     7    1
    28    13    14   ar
    29    14    15   ar
    30    15    10   ar
    31     7     1    1
    32    24    19    1
    33    28    20    1
    34    27    22    1
    35     8     9    1
    36    30    32    1
    37    30    33    1
@<TRIPOS>MOLECULE
*****
 33 37 0 0 0
SMALL
GASTEIGER

@<TRIPOS>ATOM
      1 C          61.0792   88.1268   10.4477 C.3     1  UNL1        0.0920
      2 C          60.1645   88.1304    9.2588 C.3     1  UNL1        0.0429
      3 C          60.5955   87.0267    8.3390 C.3     1  UNL1        0.0985
      4 N          61.7766   86.3410    8.9594 N.am    1  UNL1       -0.2443
      5 C          62.5270   85.1792    8.3785 C.2     1  UNL1        0.4048
      6 O          62.1100   84.6015    7.0585 O.2     1  UNL1       -0.2262
      7 C          62.0756   87.0208   10.2626 C.3     1  UNL1        0.1162
      8 N          61.0098   89.0645   11.6164 N.pl3   1  UNL1       -0.3180
      9 H          60.1867   89.1217   12.1534 H       1  UNL1        0.1482
     10 C          64.5639   91.6166   12.6675 C.ar    1  UNL1        0.0877
     11 C          64.0483   91.5923   11.2592 C.ar    1  UNL1        0.0147
     12 C          62.8636   90.7416   10.9087 C.ar    1  UNL1        0.0348
     13 C          62.1945   89.9152   11.9668 C.ar    1  UNL1        0.1286
     14 N          62.7101   89.9396   13.3752 N.ar    1  UNL1       -0.2287
     15 C          63.8947   90.7902   13.7256 C.ar    1  UNL1        0.1105
     16 N          66.9333   93.3180   13.3684 N.1     1  UNL1       -0.1908
     17 C          65.7486   92.4673   13.0180 C.1     1  UNL1        0.1020
     18 O          63.6943   84.5953    9.1176 O.3     1  UNL1       -0.4383
     19 C          63.4654   83.7683   10.3480 C.3     1  UNL1        0.1702
     20 C          63.4143   84.4262   11.6951 C.3     1  UNL1        0.0407
     21 C          63.2364   82.9414   11.5783 C.3     1  UNL1        0.0036
     22 C          63.0075   82.1145   12.8086 C.3     1  UNL1        0.0007
     23 C          63.0586   81.4566   11.4616 C.3     1  UNL1        0.0036
     24 C          63.2875   82.2835   10.2313 C.3     1  UNL1        0.0407
     25 C          63.0611   83.0201   13.4274 C.3     1  UNL1        0.0122
     26 C          63.1343   84.2571   14.2724 C.3     1  UNL1        0.0688
     27 C          62.9564   82.7723   14.1557 C.3     1  UNL1        0.0086
     28 C          63.3632   85.0841   13.0421 C.3     1  UNL1        0.0122
     29 C          63.0832   84.9150   15.6195 C.2     1  UNL1        0.2184
     30 N          64.3481   85.3916   16.2699 N.am    1  UNL1       -0.3288
     31 O          61.7673   85.0963   16.3162 O.2     1  UNL1       -0.2754
     32 H          65.2118   85.2726   15.8126 H       1  UNL1        0.1449
     33 H          64.3145   85.8234   17.1540 H       1  UNL1        0.1449
@<TRIPOS>BOND
     1    16    17    3
     2    17    10    1
     3    10    11   ar
     4    11    12   ar
     5    12    13   ar
     6    13     8    1
     7     1     8    1
     8     1     2    1
     9     2     3    1
    10     3     4    1
    11     4     5   am
    12     5     6    2
    13     5    18    1
    14    19    18    1
    15    19    20    1
    16    20    21    1
    17    21    22    1
    18    22    23    1
    19    23    24    1
    20    24    25    1
    21    25    26    1
    22    26    29    1
    23    29    30   am
    24    29    31    2
    25    26    27    1
    26    26    28    1
    27     4     7    1
    28    13    14   ar
    29    14    15   ar
    30    15    10   ar
    31     7     1    1
    32    24    19    1
    33    28    20    1
    34    27    22    1
    35     8     9    1
    36    30    32    1
    37    30    33    1
@<TRIPOS>MOLECULE
*****
 33 37 0 0 0
SMALL
GASTEIGER

@<TRIPOS>ATOM
      1 C          62.3386   89.9765   12.7846 C.3     1  UNL1        0.0920
      2 C          62.3645   91.1189   11.8128 C.3     1  UNL1        0.0429
      3 C          61.8168   90.6279   10.5055 C.3     1  UNL1        0.0985
      4 N          61.4525   89.1821   10.6693 N.am    1  UNL1       -0.2443
      5 C          60.8682   88.2946    9.6105 C.2     1  UNL1        0.4048
      6 O          60.5985   88.8403    8.2395 O.2     1  UNL1       -0.2262
      7 C          61.7750   88.7794   12.0778 C.3     1  UNL1        0.1162
      8 N          62.7961   90.0230   14.2124 N.pl3   1  UNL1       -0.3180
      9 H          62.2995   89.5296   14.9047 H       1  UNL1        0.1482
     10 C          66.4381   92.4174   15.3313 C.ar    1  UNL1        0.0877
     11 C          66.4105   91.6529   14.0410 C.ar    1  UNL1        0.0147
     12 C          65.1965   90.8547   13.6680 C.ar    1  UNL1        0.0348
     13 C          64.0101   90.8212   14.5854 C.ar    1  UNL1        0.1286
     14 N          64.0377   91.5857   15.8756 N.ar    1  UNL1       -0.2287
     15 C          65.2516   92.3838   16.2486 C.ar    1  UNL1        0.1105
     16 N          68.8661   94.0138   16.0773 N.1     1  UNL1       -0.1908
     17 C          67.6521   93.2156   15.7043 C.1     1  UNL1        0.1020
     18 O          60.5537   86.8616    9.9226 O.3     1  UNL1       -0.4383
     19 C          61.6576   85.8478    9.9848 C.3     1  UNL1        0.1702
     20 C          62.0551   85.2519   11.3027 C.3     1  UNL1        0.0407
     21 C          62.7614   84.8341   10.0470 C.3     1  UNL1        0.0036
     22 C          63.8652   83.8203   10.1093 C.3     1  UNL1        0.0007
     23 C          63.4676   84.4163    8.7914 C.3     1  UNL1        0.0036
     24 C          62.3638   85.4300    8.7292 C.3     1  UNL1        0.0407
     25 C          63.7347   83.7450   11.1970 C.3     1  UNL1        0.0122
     26 C          63.5565   83.6422   12.6828 C.3     1  UNL1        0.0688
     27 C          64.2627   83.2244   11.4271 C.3     1  UNL1        0.0086
     28 C          62.4527   84.6559   12.6205 C.3     1  UNL1        0.0122
     29 C          63.9541   83.0462   14.0006 C.2     1  UNL1        0.2184
     30 N          64.7094   83.8716   14.9997 N.am    1  UNL1       -0.3288
     31 O          63.5963   81.6248   14.3195 O.2     1  UNL1       -0.2754
     32 H          64.9443   84.8045   14.7904 H       1  UNL1        0.1449
     33 H          64.9703   83.4804   15.8646 H       1  UNL1        0.1449
@<TRIPOS>BOND
     1    16    17    3
     2    17    10    1
     3    10    11   ar
     4    11    12   ar
     5    12    13   ar
     6    13     8    1
     7     1     8    1
     8     1     2    1
     9     2     3    1
    10     3     4    1
    11     4     5   am
    12     5     6    2
    13     5    18    1
    14    19    18    1
    15    19    20    1
    16    20    21    1
    17    21    22    1
    18    22    23    1
    19    23    24    1
    20    24    25    1
    21    25    26    1
    22    26    29    1
    23    29    30   am
    24    29    31    2
    25    26    27    1
    26    26    28    1
    27     4     7    1
    28    13    14   ar
    29    14    15   ar
    30    15    10   ar
    31     7     1    1
    32    24    19    1
    33    28    20    1
    34    27    22    1
    35     8     9    1
    36    30    32    1
    37    30    33    1
@<TRIPOS>MOLECULE
*****
 33 37 0 0 0
SMALL
GASTEIGER

@<TRIPOS>ATOM
      1 C          61.7951   89.6492   12.1004 C.3     1  UNL1        0.0920
      2 C          60.2999   89.7486   12.0310 C.3     1  UNL1        0.0429
      3 C          59.8147   88.7444   11.0279 C.3     1  UNL1        0.0985
      4 N          61.0099   88.0245   10.4773 N.am    1  UNL1       -0.2443
      5 C          60.9855   86.9363    9.4450 C.2     1  UNL1        0.4048
      6 O          59.6785   86.4783    8.8689 O.2     1  UNL1       -0.2262
      7 C          62.2339   88.5836   11.1400 C.3     1  UNL1        0.1162
      8 N          62.6936   90.4711   12.9762 N.pl3   1  UNL1       -0.3180
      9 H          62.5927   90.4369   13.9549 H       1  UNL1        0.1482
     10 C          65.8507   93.0931   11.1301 C.ar    1  UNL1        0.0877
     11 C          64.8474   92.3993   10.2571 C.ar    1  UNL1        0.0147
     12 C          63.7950   91.5253   10.8725 C.ar    1  UNL1        0.0348
     13 C          63.7460   91.3451   12.3608 C.ar    1  UNL1        0.1286
     14 N          64.7493   92.0389   13.2338 N.ar    1  UNL1       -0.2287
     15 C          65.8016   92.9128   12.6185 C.ar    1  UNL1        0.1105
     16 N          67.9554   94.8411    9.8994 N.1     1  UNL1       -0.1908
     17 C          66.9030   93.9671   10.5147 C.1     1  UNL1        0.1020
     18 O          62.2680   86.3063    8.9890 O.3     1  UNL1       -0.4383
     19 C          62.8728   85.1818    9.7764 C.3     1  UNL1        0.1702
     20 C          62.8049   85.1940   11.2748 C.3     1  UNL1        0.0407
     21 C          63.4774   84.0573   10.5637 C.3     1  UNL1        0.0036
     22 C          64.0821   82.9329   11.3511 C.3     1  UNL1        0.0007
     23 C          64.1500   82.9207    9.8527 C.3     1  UNL1        0.0036
     24 C          63.5453   84.0451    9.0653 C.3     1  UNL1        0.0407
     25 C          63.7692   83.4185   12.2850 C.3     1  UNL1        0.0122
     26 C          63.3417   84.0818   13.5606 C.3     1  UNL1        0.0688
     27 C          64.0142   82.9452   12.8495 C.3     1  UNL1        0.0086
     28 C          62.7370   85.2062   12.7732 C.3     1  UNL1        0.0122
     29 C          63.2738   84.0941   15.0590 C.2     1  UNL1        0.2184
     30 N          62.5395   83.0064   15.7854 N.am    1  UNL1       -0.3288
     31 O          63.9402   85.1940   15.8310 O.2     1  UNL1       -0.2754
     32 H          62.1021   82.2844   15.2787 H       1  UNL1        0.1449
     33 H          62.4950   83.0144   16.7688 H       1  UNL1        0.1449
@<TRIPOS>BOND
     1    16    17    3
     2    17    10    1
     3    10    11   ar
     4    11    12   ar
     5    12    13   ar
     6    13     8    1
     7     1     8    1
     8     1     2    1
     9     2     3    1
    10     3     4    1
    11     4     5   am
    12     5     6    2
    13     5    18    1
    14    19    18    1
    15    19    20    1
    16    20    21    1
    17    21    22    1
    18    22    23    1
    19    23    24    1
    20    24    25    1
    21    25    26    1
    22    26    29    1
    23    29    30   am
    24    29    31    2
    25    26    27    1
    26    26    28    1
    27     4     7    1
    28    13    14   ar
    29    14    15   ar
    30    15    10   ar
    31     7     1    1
    32    24    19    1
    33    28    20    1
    34    27    22    1
    35     8     9    1
    36    30    32    1
    37    30    33    1
@<TRIPOS>MOLECULE
*****
 33 37 0 0 0
SMALL
GASTEIGER

@<TRIPOS>ATOM
      1 C          63.1533   87.4943   16.4412 C.3     1  UNL1        0.0920
      2 C          62.2885   86.6643   17.3430 C.3     1  UNL1        0.0429
      3 C          62.4085   85.2327   16.9115 C.3     1  UNL1        0.0985
      4 N          63.3474   85.1780   15.7430 N.am    1  UNL1       -0.2443
      5 C          63.7546   83.9424   14.9962 C.2     1  UNL1        0.4048
      6 O          63.2092   82.6058   15.4038 O.2     1  UNL1       -0.2262
      7 C          63.8078   86.5757   15.4523 C.3     1  UNL1        0.1162
      8 N          63.3323   88.9818   16.5153 N.pl3   1  UNL1       -0.3180
      9 H          63.2052   89.4508   17.3715 H       1  UNL1        0.1482
     10 C          64.4502   91.3002   12.8241 C.ar    1  UNL1        0.0877
     11 C          65.3262   91.3585   14.0404 C.ar    1  UNL1        0.0147
     12 C          64.9536   90.5857   15.2708 C.ar    1  UNL1        0.0348
     13 C          63.7049   89.7546   15.2849 C.ar    1  UNL1        0.1286
     14 N          62.8290   89.6962   14.0686 N.ar    1  UNL1       -0.2287
     15 C          63.2016   90.4690   12.8383 C.ar    1  UNL1        0.1105
     16 N          65.1955   92.8458   10.3633 N.1     1  UNL1       -0.1908
     17 C          64.8229   92.0730   11.5937 C.1     1  UNL1        0.1020
     18 O          64.7071   84.0434   13.8419 O.3     1  UNL1       -0.4383
     19 C          64.1802   84.1306   12.4401 C.3     1  UNL1        0.1702
     20 C          63.3235   85.2922   12.0317 C.3     1  UNL1        0.0407
     21 C          63.6533   84.2177   11.0384 C.3     1  UNL1        0.0036
     22 C          63.1264   84.3049    9.6367 C.3     1  UNL1        0.0007
     23 C          63.9830   83.1432   10.0451 C.3     1  UNL1        0.0036
     24 C          64.5099   83.0561   11.4468 C.3     1  UNL1        0.0407
     25 C          62.6249   85.2500    9.8839 C.3     1  UNL1        0.0122
     26 C          61.9399   86.5410   10.2217 C.3     1  UNL1        0.0688
     27 C          62.2697   85.4665    9.2284 C.3     1  UNL1        0.0086
     28 C          62.4668   86.4538   11.6234 C.3     1  UNL1        0.0122
     29 C          61.0833   87.7026    9.8133 C.2     1  UNL1        0.2184
     30 N          61.6501   89.0913    9.8197 N.am    1  UNL1       -0.3288
     31 O          59.6598   87.4755    9.3986 O.2     1  UNL1       -0.2754
     32 H          62.5844   89.2404   10.0920 H       1  UNL1        0.1449
     33 H          61.0878   89.8537    9.5517 H       1  UNL1        0.1449
@<TRIPOS>BOND
     1    16    17    3
     2    17    10    1
     3    10    11   ar
     4    11    12   ar
     5    12    13   ar
     6    13     8    1
     7     1     8    1
     8     1     2    1
     9     2     3    1
    10     3     4    1
    11     4     5   am
    12     5     6    2
    13     5    18    1
    14    19    18    1
    15    19    20    1
    16    20    21    1
    17    21    22    1
    18    22    23    1
    19    23    24    1
    20    24    25    1
    21    25    26    1
    22    26    29    1
    23    29    30   am
    24    29    31    2
    25    26    27    1
    26    26    28    1
    27     4     7    1
    28    13    14   ar
    29    14    15   ar
    30    15    10   ar
    31     7     1    1
    32    24    19    1
    33    28    20    1
    34    27    22    1
    35     8     9    1
    36    30    32    1
    37    30    33    1
@<TRIPOS>MOLECULE
*****
 33 37 0 0 0
SMALL
GASTEIGER

@<TRIPOS>ATOM
      1 C          64.2783   86.6178   14.6880 C.3     1  UNL1        0.0920
      2 C          65.4662   85.8245   15.1459 C.3     1  UNL1        0.0429
      3 C          65.4458   84.5054   14.4320 C.3     1  UNL1        0.0985
      4 N          64.2455   84.4835   13.5328 N.am    1  UNL1       -0.2443
      5 C          63.8381   83.3543   12.6333 C.2     1  UNL1        0.4048
      6 O          64.6631   82.1027   12.5802 O.2     1  UNL1       -0.2262
      7 C          63.5239   85.7890   13.6910 C.3     1  UNL1        0.1162
      8 N          63.9097   87.9976   15.1465 N.pl3   1  UNL1       -0.3180
      9 H          63.4632   88.1250   16.0146 H       1  UNL1        0.1482
     10 C          64.8447   91.5549   12.5539 C.ar    1  UNL1        0.0877
     11 C          63.7915   90.5743   12.1304 C.ar    1  UNL1        0.0147
     12 C          63.4798   89.3885   12.9946 C.ar    1  UNL1        0.0348
     13 C          64.2214   89.1834   14.2823 C.ar    1  UNL1        0.1286
     14 N          65.2746   90.1640   14.7057 N.ar    1  UNL1       -0.2287
     15 C          65.5862   91.3497   13.8416 C.ar    1  UNL1        0.1105
     16 N          65.4681   93.9264   10.8255 N.1     1  UNL1       -0.1908
     17 C          65.1564   92.7406   11.6897 C.1     1  UNL1        0.1020
     18 O          62.6057   83.4768   11.7870 O.3     1  UNL1       -0.4383
     19 C          62.4748   84.6094   10.8122 C.3     1  UNL1        0.1702
     20 C          61.7414   85.8571   11.2062 C.3     1  UNL1        0.0407
     21 C          62.3439   85.7419    9.8374 C.3     1  UNL1        0.0036
     22 C          62.2130   86.8744    8.8627 C.3     1  UNL1        0.0007
     23 C          62.9464   85.6267    8.4686 C.3     1  UNL1        0.0036
     24 C          63.0774   84.4942    9.4434 C.3     1  UNL1        0.0407
     25 C          61.6483   87.4505    9.6077 C.3     1  UNL1        0.0122
     26 C          60.8770   88.2373   10.6255 C.3     1  UNL1        0.0688
     27 C          61.4795   88.1221    9.2567 C.3     1  UNL1        0.0086
     28 C          61.0079   87.1048   11.6003 C.3     1  UNL1        0.0122
     29 C          60.1436   89.4850   11.0196 C.2     1  UNL1        0.2184
     30 N          59.8301   89.7466   12.4629 N.am    1  UNL1       -0.3288
     31 O          59.7236   90.4712    9.9703 O.2     1  UNL1       -0.2754
     32 H          60.1057   89.0993   13.1516 H       1  UNL1        0.1449
     33 H          59.3487   90.5655   12.7216 H       1  UNL1        0.1449
@<TRIPOS>BOND
     1    16    17    3
     2    17    10    1
     3    10    11   ar
     4    11    12   ar
     5    12    13   ar
     6    13     8    1
     7     1     8    1
     8     1     2    1
     9     2     3    1
    10     3     4    1
    11     4     5   am
    12     5     6    2
    13     5    18    1
    14    19    18    1
    15    19    20    1
    16    20    21    1
    17    21    22    1
    18    22    23    1
    19    23    24    1
    20    24    25    1
    21    25    26    1
    22    26    29    1
    23    29    30   am
    24    29    31    2
    25    26    27    1
    26    26    28    1
    27     4     7    1
    28    13    14   ar
    29    14    15   ar
    30    15    10   ar
    31     7     1    1
    32    24    19    1
    33    28    20    1
    34    27    22    1
    35     8     9    1
    36    30    32    1
    37    30    33    1
@<TRIPOS>MOLECULE
*****
 33 37 0 0 0
SMALL
GASTEIGER

@<TRIPOS>ATOM
      1 C          62.0697   86.8008    9.4764 C.3     1  UNL1        0.0920
      2 C          61.1120   87.5506    8.5984 C.3     1  UNL1        0.0429
      3 C          60.6266   88.7487    9.3592 C.3     1  UNL1        0.0985
      4 N          61.2842   88.7395   10.7073 N.am    1  UNL1       -0.2443
      5 C          61.0850   89.7557   11.7925 C.2     1  UNL1        0.4048
      6 O          60.1560   90.9131   11.5748 O.2     1  UNL1       -0.2262
      7 C          62.1761   87.5356   10.7798 C.3     1  UNL1        0.1162
      8 N          62.7938   85.5380    9.1145 N.pl3   1  UNL1       -0.3180
      9 H          63.1268   85.4071    8.1973 H       1  UNL1        0.1482
     10 C          63.4436   82.3477   12.2208 C.ar    1  UNL1        0.0877
     11 C          64.1515   82.2646   10.9010 C.ar    1  UNL1        0.0147
     12 C          63.9349   83.3281    9.8655 C.ar    1  UNL1        0.0348
     13 C          63.0104   84.4745   10.1500 C.ar    1  UNL1        0.1286
     14 N          62.3025   84.5576   11.4698 N.ar    1  UNL1       -0.2287
     15 C          62.5191   83.4943   12.5052 C.ar    1  UNL1        0.1105
     16 N          63.8768   80.2209   14.2918 N.1     1  UNL1       -0.1908
     17 C          63.6602   81.2843   13.2563 C.1     1  UNL1        0.1020
     18 O          61.8147   89.6145   13.0954 O.3     1  UNL1       -0.4383
     19 C          63.0964   90.3603   13.3218 C.3     1  UNL1        0.1702
     20 C          63.7444   91.0993   12.1887 C.3     1  UNL1        0.0407
     21 C          64.3781   91.1060   13.5482 C.3     1  UNL1        0.0036
     22 C          65.6597   91.8517   13.7746 C.3     1  UNL1        0.0007
     23 C          65.0118   91.1126   14.9077 C.3     1  UNL1        0.0036
     24 C          63.7302   90.3669   14.6813 C.3     1  UNL1        0.0407
     25 C          65.6657   92.1613   12.7210 C.3     1  UNL1        0.0122
     26 C          65.6739   92.5841   11.2819 C.3     1  UNL1        0.0688
     27 C          66.3076   92.5908   12.6414 C.3     1  UNL1        0.0086
     28 C          64.3923   91.8384   11.0556 C.3     1  UNL1        0.0122
     29 C          66.3218   93.3232   10.1488 C.2     1  UNL1        0.2184
     30 N          65.7663   94.6416    9.6983 N.am    1  UNL1       -0.3288
     31 O          67.5252   92.7438    9.4662 O.2     1  UNL1       -0.2754
     32 H          64.9764   95.0220   10.1463 H       1  UNL1        0.1449
     33 H          66.1915   95.1267    8.9546 H       1  UNL1        0.1449
@<TRIPOS>BOND
     1    16    17    3
     2    17    10    1
     3    10    11   ar
     4    11    12   ar
     5    12    13   ar
     6    13     8    1
     7     1     8    1
     8     1     2    1
     9     2     3    1
    10     3     4    1
    11     4     5   am
    12     5     6    2
    13     5    18    1
    14    19    18    1
    15    19    20    1
    16    20    21    1
    17    21    22    1
    18    22    23    1
    19    23    24    1
    20    24    25    1
    21    25    26    1
    22    26    29    1
    23    29    30   am
    24    29    31    2
    25    26    27    1
    26    26    28    1
    27     4     7    1
    28    13    14   ar
    29    14    15   ar
    30    15    10   ar
    31     7     1    1
    32    24    19    1
    33    28    20    1
    34    27    22    1
    35     8     9    1
    36    30    32    1
    37    30    33    1
@<TRIPOS>MOLECULE
*****
 33 37 0 0 0
SMALL
GASTEIGER

@<TRIPOS>ATOM
      1 C          64.1003   85.5627   15.9722 C.3     1  UNL1        0.0920
      2 C          63.0960   85.9711   17.0089 C.3     1  UNL1        0.0429
      3 C          62.8277   87.4374   16.8420 C.3     1  UNL1        0.0985
      4 N          63.6662   87.9353   15.7023 N.am    1  UNL1       -0.2443
      5 C          63.7104   89.3445   15.1900 C.2     1  UNL1        0.4048
      6 O          62.8628   90.4027   15.8316 O.2     1  UNL1       -0.2262
      7 C          64.4527   86.7767   15.1647 C.3     1  UNL1        0.1162
      8 N          64.6548   84.1827   15.7773 N.pl3   1  UNL1       -0.3180
      9 H          65.2767   83.8039   16.4400 H       1  UNL1        0.1482
     10 C          63.4762   81.7738   12.1638 C.ar    1  UNL1        0.0877
     11 C          64.2300   83.0595   11.9947 C.ar    1  UNL1        0.0147
     12 C          64.6229   83.8625   13.1993 C.ar    1  UNL1        0.0348
     13 C          64.2619   83.3797   14.5728 C.ar    1  UNL1        0.1286
     14 N          63.5081   82.0939   14.7418 N.ar    1  UNL1       -0.2287
     15 C          63.1152   81.2910   13.5374 C.ar    1  UNL1        0.1105
     16 N          62.6904   80.1678    9.7547 N.1     1  UNL1       -0.1908
     17 C          63.0833   80.9708   10.9592 C.1     1  UNL1        0.1020
     18 O          64.6023   89.6954   14.0361 O.3     1  UNL1       -0.4383
     19 C          65.2731   91.0362   13.9874 C.3     1  UNL1        0.1702
     20 C          65.2460   91.8428   12.7230 C.3     1  UNL1        0.0407
     21 C          65.9439   92.3769   13.9385 C.3     1  UNL1        0.0036
     22 C          66.6147   93.7176   13.8897 C.3     1  UNL1        0.0007
     23 C          66.6418   92.9110   15.1541 C.3     1  UNL1        0.0036
     24 C          65.9711   91.5703   15.2029 C.3     1  UNL1        0.0407
     25 C          66.3083   93.8329   12.8416 C.3     1  UNL1        0.0122
     26 C          65.8896   93.9902   11.4098 C.3     1  UNL1        0.0688
     27 C          66.5875   94.5243   12.6254 C.3     1  UNL1        0.0086
     28 C          65.2188   92.6494   11.4586 C.3     1  UNL1        0.0122
     29 C          65.8625   94.7968   10.1455 C.2     1  UNL1        0.2184
     30 N          64.8637   95.9042    9.9836 N.am    1  UNL1       -0.3288
     31 O          66.8341   94.4961    9.0430 O.2     1  UNL1       -0.2754
     32 H          64.2260   96.1016   10.7072 H       1  UNL1        0.1449
     33 H          64.8459   96.4336    9.1538 H       1  UNL1        0.1449
@<TRIPOS>BOND
     1    16    17    3
     2    17    10    1
     3    10    11   ar
     4    11    12   ar
     5    12    13   ar
     6    13     8    1
     7     1     8    1
     8     1     2    1
     9     2     3    1
    10     3     4    1
    11     4     5   am
    12     5     6    2
    13     5    18    1
    14    19    18    1
    15    19    20    1
    16    20    21    1
    17    21    22    1
    18    22    23    1
    19    23    24    1
    20    24    25    1
    21    25    26    1
    22    26    29    1
    23    29    30   am
    24    29    31    2
    25    26    27    1
    26    26    28    1
    27     4     7    1
    28    13    14   ar
    29    14    15   ar
    30    15    10   ar
    31     7     1    1
    32    24    19    1
    33    28    20    1
    34    27    22    1
    35     8     9    1
    36    30    32    1
    37    30    33    1
