@<TRIPOS>MOLECULE
*****
 30 33 0 0 0
SMALL
GASTEIGER

@<TRIPOS>ATOM
      1 C          63.6999   85.4600   14.1339 C.3     1  UNL1        0.1400
      2 O          64.6115   85.8680   15.2530 O.3     1  UNL1       -0.3517
      3 C          64.9365   87.3221   15.0794 C.3     1  UNL1        0.1454
      4 C          64.2257   87.8127   13.8530 C.3     1  UNL1        0.0662
      5 C          63.9872   89.0145   12.9876 C.3     1  UNL1        0.1401
      6 O          63.0756   88.6064   11.8686 O.3     1  UNL1       -0.3517
      7 C          62.7507   87.1524   12.0422 C.3     1  UNL1        0.1454
      8 C          63.4614   86.6618   13.2686 C.3     1  UNL1        0.0662
      9 C          62.7870   82.0071   12.4033 C.ar    1  UNL1        0.1719
     10 C          63.3596   83.3766   12.6194 C.ar    1  UNL1        0.0381
     11 C          63.1273   84.0905   13.9180 C.ar    1  UNL1        0.0078
     12 C          62.3223   83.4349   15.0006 C.ar    1  UNL1        0.0014
     13 C          61.7497   82.0654   14.7846 C.ar    1  UNL1        0.0395
     14 C          61.9821   81.3515   13.4860 C.ar    1  UNL1        0.1677
     15 O          61.4095   79.9820   13.2701 O.3     1  UNL1       -0.5029
     16 H          60.9066   79.5725   13.9464 H       1  UNL1        0.2923
     17 C          63.9534   81.8755   10.0855 C.3     1  UNL1        0.2526
     18 O          63.0194   81.2933   11.1047 O.3     1  UNL1       -0.4684
     19 C          64.5598   90.3840   13.2036 C.ar    1  UNL1        0.0108
     20 C          65.0737   90.7772   14.5568 C.ar    1  UNL1        0.0383
     21 C          65.6463   92.1467   14.7728 C.ar    1  UNL1        0.1750
     22 C          65.7051   93.1229   13.6355 C.ar    1  UNL1        0.2024
     23 O          66.2777   94.4924   13.8515 O.3     1  UNL1       -0.5009
     24 C          65.1912   92.7297   12.2822 C.ar    1  UNL1        0.1750
     25 C          64.6186   91.3602   12.0663 C.ar    1  UNL1        0.0383
     26 H          66.5987   94.7380   14.6969 H       1  UNL1        0.2924
     27 O          66.1601   92.5399   16.1261 O.3     1  UNL1       -0.4683
     28 C          67.6375   92.6133   16.3753 C.3     1  UNL1        0.2526
     29 O          65.2500   93.7060   11.1449 O.3     1  UNL1       -0.4683
     30 C          66.4178   93.6916   10.2037 C.3     1  UNL1        0.2526
@<TRIPOS>BOND
     1    17    18    1
     2    18     9    1
     3     9    10   ar
     4    10    11   ar
     5     1    11    1
     6     1     2    1
     7     2     3    1
     8     4     3    1
     9     4     5    1
    10     5    19    1
    11    19    20   ar
    12    20    21   ar
    13    21    27    1
    14    27    28    1
    15    21    22   ar
    16    22    23    1
    17    22    24   ar
    18    24    29    1
    19    29    30    1
    20    24    25   ar
    21     5     6    1
    22     6     7    1
    23     8     7    1
    24    11    12   ar
    25    12    13   ar
    26    13    14   ar
    27    14    15    1
    28    14     9   ar
    29     8     1    1
    30     8     4    1
    31    25    19   ar
    32    23    26    1
    33    15    16    1
@<TRIPOS>MOLECULE
*****
 30 33 0 0 0
SMALL
GASTEIGER

@<TRIPOS>ATOM
      1 C          63.7251   85.4683   14.1543 C.3     1  UNL1        0.1400
      2 O          64.6472   85.8746   15.2655 O.3     1  UNL1       -0.3517
      3 C          64.9688   87.3295   15.0922 C.3     1  UNL1        0.1454
      4 C          64.2456   87.8222   13.8739 C.3     1  UNL1        0.0662
      5 C          63.9973   89.0259   13.0139 C.3     1  UNL1        0.1401
      6 O          63.0753   88.6194   11.9028 O.3     1  UNL1       -0.3517
      7 C          62.7536   87.1647   12.0761 C.3     1  UNL1        0.1454
      8 C          63.4769   86.6719   13.2943 C.3     1  UNL1        0.0662
      9 C          62.8267   82.0051   12.4369 C.ar    1  UNL1        0.1719
     10 C          63.3999   83.3747   12.6506 C.ar    1  UNL1        0.0381
     11 C          63.1519   84.0987   13.9407 C.ar    1  UNL1        0.0078
     12 C          62.3307   83.4531   15.0171 C.ar    1  UNL1        0.0014
     13 C          61.7574   82.0835   14.8034 C.ar    1  UNL1        0.0395
     14 C          62.0054   81.3595   13.5133 C.ar    1  UNL1        0.1677
     15 O          61.4322   79.9899   13.2997 O.3     1  UNL1       -0.5029
     16 H          60.9192   79.5866   13.9721 H       1  UNL1        0.2923
     17 C          63.9597   81.8930   10.1016 C.3     1  UNL1        0.2526
     18 O          63.0747   81.2812   11.1468 O.3     1  UNL1       -0.4684
     19 C          64.5706   90.3955   13.2276 C.ar    1  UNL1        0.0108
     20 C          64.6190   91.3738   12.0916 C.ar    1  UNL1        0.0383
     21 C          65.1923   92.7434   12.3052 C.ar    1  UNL1        0.1750
     22 C          65.7170   93.1346   13.6549 C.ar    1  UNL1        0.2024
     23 O          66.2903   94.5043   13.8684 O.3     1  UNL1       -0.5009
     24 C          65.6686   92.1563   14.7908 C.ar    1  UNL1        0.1750
     25 C          65.0953   90.7867   14.5772 C.ar    1  UNL1        0.0383
     26 H          66.3205   95.1154   13.1588 H       1  UNL1        0.2924
     27 O          65.2407   93.7217   11.1691 O.3     1  UNL1       -0.4683
     28 C          66.4011   93.7107   10.2187 C.3     1  UNL1        0.2526
     29 O          66.1933   92.5475   16.1405 O.3     1  UNL1       -0.4683
     30 C          67.6724   92.6431   16.3713 C.3     1  UNL1        0.2526
@<TRIPOS>BOND
     1    17    18    1
     2    18     9    1
     3     9    10   ar
     4    10    11   ar
     5     1    11    1
     6     1     2    1
     7     2     3    1
     8     4     3    1
     9     4     5    1
    10     5    19    1
    11    19    20   ar
    12    20    21   ar
    13    21    27    1
    14    27    28    1
    15    21    22   ar
    16    22    23    1
    17    22    24   ar
    18    24    29    1
    19    29    30    1
    20    24    25   ar
    21     5     6    1
    22     6     7    1
    23     8     7    1
    24    11    12   ar
    25    12    13   ar
    26    13    14   ar
    27    14    15    1
    28    14     9   ar
    29     8     1    1
    30     8     4    1
    31    25    19   ar
    32    23    26    1
    33    15    16    1
@<TRIPOS>MOLECULE
*****
 30 33 0 0 0
SMALL
GASTEIGER

@<TRIPOS>ATOM
      1 C          64.6168   90.2732   13.5736 C.3     1  UNL1        0.1400
      2 O          64.2512   88.8633   13.9322 O.3     1  UNL1       -0.3517
      3 C          63.3958   88.3117   12.8304 C.3     1  UNL1        0.1454
      4 C          63.2326   89.3807   11.7909 C.3     1  UNL1        0.0662
      5 C          62.6031   89.7004   10.4674 C.3     1  UNL1        0.1401
      6 O          62.9686   91.1103   10.1089 O.3     1  UNL1       -0.3517
      7 C          63.8240   91.6619   11.2106 C.3     1  UNL1        0.1454
      8 C          63.9872   90.5930   12.2502 C.3     1  UNL1        0.0662
      9 C          67.6999   92.4690   14.7665 C.ar    1  UNL1        0.1719
     10 C          66.8534   91.5416   13.9458 C.ar    1  UNL1        0.0381
     11 C          65.4632   91.2006   14.3943 C.ar    1  UNL1        0.0078
     12 C          64.9195   91.7869   15.6634 C.ar    1  UNL1        0.0014
     13 C          65.7661   92.7142   16.4840 C.ar    1  UNL1        0.0395
     14 C          67.1562   93.0553   16.0356 C.ar    1  UNL1        0.1677
     15 O          68.0027   93.9827   16.8563 O.3     1  UNL1       -0.5029
     16 H          67.6630   94.3489   17.6490 H       1  UNL1        0.2923
     17 C          69.8399   91.8713   13.4199 C.3     1  UNL1        0.2526
     18 O          69.0901   92.8100   14.3180 O.3     1  UNL1       -0.4684
     19 C          61.7566   88.7731    9.6468 C.ar    1  UNL1        0.0108
     20 C          62.0784   87.3088    9.5987 C.ar    1  UNL1        0.0383
     21 C          61.2319   86.3814    8.7780 C.ar    1  UNL1        0.1750
     22 C          60.0637   86.9184    8.0054 C.ar    1  UNL1        0.2024
     23 O          59.2173   85.9909    7.1847 O.3     1  UNL1       -0.5009
     24 C          59.7419   88.3826    8.0535 C.ar    1  UNL1        0.1750
     25 C          60.5884   89.3100    8.8741 C.ar    1  UNL1        0.0383
     26 H          59.4183   85.0762    7.1547 H       1  UNL1        0.2924
     27 O          61.5538   84.9171    8.7300 O.3     1  UNL1       -0.4683
     28 C          62.9777   84.4581    8.8387 C.3     1  UNL1        0.2526
     29 O          58.5737   88.9195    7.2808 O.3     1  UNL1       -0.4683
     30 C          58.8008   89.8611    6.1355 C.3     1  UNL1        0.2526
@<TRIPOS>BOND
     1    17    18    1
     2    18     9    1
     3     9    10   ar
     4    10    11   ar
     5     1    11    1
     6     1     2    1
     7     2     3    1
     8     4     3    1
     9     4     5    1
    10     5    19    1
    11    19    20   ar
    12    20    21   ar
    13    21    27    1
    14    27    28    1
    15    21    22   ar
    16    22    23    1
    17    22    24   ar
    18    24    29    1
    19    29    30    1
    20    24    25   ar
    21     5     6    1
    22     6     7    1
    23     8     7    1
    24    11    12   ar
    25    12    13   ar
    26    13    14   ar
    27    14    15    1
    28    14     9   ar
    29     8     1    1
    30     8     4    1
    31    25    19   ar
    32    23    26    1
    33    15    16    1
@<TRIPOS>MOLECULE
*****
 30 33 0 0 0
SMALL
GASTEIGER

@<TRIPOS>ATOM
      1 C          64.6335   90.2811   13.5958 C.3     1  UNL1        0.1400
      2 O          64.2523   88.8801   13.9723 O.3     1  UNL1       -0.3517
      3 C          63.4037   88.3186   12.8703 C.3     1  UNL1        0.1454
      4 C          63.2604   89.3726   11.8127 C.3     1  UNL1        0.0662
      5 C          62.6473   89.6770   10.4779 C.3     1  UNL1        0.1401
      6 O          63.0285   91.0780   10.1015 O.3     1  UNL1       -0.3517
      7 C          63.8772   91.6395   11.2035 C.3     1  UNL1        0.1454
      8 C          64.0205   90.5855   12.2611 C.3     1  UNL1        0.0662
      9 C          67.7176   92.4807   14.7793 C.ar    1  UNL1        0.1719
     10 C          66.8718   91.5478   13.9642 C.ar    1  UNL1        0.0381
     11 C          65.4793   91.2140   14.4109 C.ar    1  UNL1        0.0078
     12 C          64.9326   91.8131   15.6727 C.ar    1  UNL1        0.0014
     13 C          65.7784   92.7460   16.4878 C.ar    1  UNL1        0.0395
     14 C          67.1709   93.0798   16.0411 C.ar    1  UNL1        0.1677
     15 O          68.0167   94.0127   16.8562 O.3     1  UNL1       -0.5029
     16 H          67.6751   94.3870   17.6444 H       1  UNL1        0.2923
     17 C          69.8525   91.8765   13.4275 C.3     1  UNL1        0.2526
     18 O          69.1100   92.8145   14.3325 O.3     1  UNL1       -0.4684
     19 C          61.8016   88.7441    9.6628 C.ar    1  UNL1        0.0108
     20 C          60.6239   89.2731    8.8991 C.ar    1  UNL1        0.0383
     21 C          59.7782   88.3402    8.0840 C.ar    1  UNL1        0.1750
     22 C          60.1100   86.8783    8.0326 C.ar    1  UNL1        0.2024
     23 O          59.2642   85.9455    7.2175 O.3     1  UNL1       -0.5009
     24 C          61.2877   86.3493    8.7963 C.ar    1  UNL1        0.1750
     25 C          62.1335   87.2822    9.6114 C.ar    1  UNL1        0.0383
     26 H          58.5286   86.2760    6.7404 H       1  UNL1        0.2924
     27 O          58.6005   88.8694    7.3203 O.3     1  UNL1       -0.4683
     28 C          58.8091   89.8514    6.2058 C.3     1  UNL1        0.2526
     29 O          61.6196   84.8874    8.7449 O.3     1  UNL1       -0.4683
     30 C          63.0359   84.4326    8.9374 C.3     1  UNL1        0.2526
@<TRIPOS>BOND
     1    17    18    1
     2    18     9    1
     3     9    10   ar
     4    10    11   ar
     5     1    11    1
     6     1     2    1
     7     2     3    1
     8     4     3    1
     9     4     5    1
    10     5    19    1
    11    19    20   ar
    12    20    21   ar
    13    21    27    1
    14    27    28    1
    15    21    22   ar
    16    22    23    1
    17    22    24   ar
    18    24    29    1
    19    29    30    1
    20    24    25   ar
    21     5     6    1
    22     6     7    1
    23     8     7    1
    24    11    12   ar
    25    12    13   ar
    26    13    14   ar
    27    14    15    1
    28    14     9   ar
    29     8     1    1
    30     8     4    1
    31    25    19   ar
    32    23    26    1
    33    15    16    1
@<TRIPOS>MOLECULE
*****
 30 33 0 0 0
SMALL
GASTEIGER

@<TRIPOS>ATOM
      1 C          60.2890   92.6346    3.1355 C.3     1  UNL1        0.1400
      2 O          61.6686   92.1083    3.3996 O.3     1  UNL1       -0.3517
      3 C          61.5801   91.1198    4.5243 C.3     1  UNL1        0.1454
      4 C          60.1459   91.0352    4.9554 C.3     1  UNL1        0.0662
      5 C          59.2048   90.3720    5.9170 C.3     1  UNL1        0.1401
      6 O          57.8253   90.8983    5.6529 O.3     1  UNL1       -0.3517
      7 C          57.9137   91.8868    4.5282 C.3     1  UNL1        0.1454
      8 C          59.3479   91.9714    4.0971 C.3     1  UNL1        0.0662
      9 C          58.7729   94.2340   -0.1651 C.ar    1  UNL1        0.1719
     10 C          59.1461   93.2222    0.8776 C.ar    1  UNL1        0.0381
     11 C          59.9159   93.6465    2.0930 C.ar    1  UNL1        0.0078
     12 C          60.3126   95.0827    2.2659 C.ar    1  UNL1        0.0014
     13 C          59.9395   96.0945    1.2232 C.ar    1  UNL1        0.0395
     14 C          59.1697   95.6702    0.0078 C.ar    1  UNL1        0.1677
     15 O          58.7966   96.6821   -1.0348 O.3     1  UNL1       -0.5029
     16 H          59.0445   97.5792   -0.9268 H       1  UNL1        0.2923
     17 C          56.9559   92.7414   -1.2698 C.3     1  UNL1        0.2526
     18 O          58.0031   93.8096   -1.3805 O.3     1  UNL1       -0.4684
     19 C          59.5779   89.3601    6.9595 C.ar    1  UNL1        0.0108
     20 C          59.9472   89.8091    8.3423 C.ar    1  UNL1        0.0383
     21 C          60.3202   88.7973    9.3848 C.ar    1  UNL1        0.1750
     22 C          60.3240   87.3364    9.0446 C.ar    1  UNL1        0.2024
     23 O          60.6971   86.3245   10.0873 O.3     1  UNL1       -0.5009
     24 C          59.9548   86.8873    7.6619 C.ar    1  UNL1        0.1750
     25 C          59.5817   87.8992    6.6193 C.ar    1  UNL1        0.0383
     26 H          60.9278   86.6051   10.9510 H       1  UNL1        0.2924
     27 O          60.6895   89.2464   10.7676 O.3     1  UNL1       -0.4683
     28 C          59.7118   90.0370   11.5856 C.3     1  UNL1        0.2526
     29 O          59.9586   85.4264    7.3217 O.3     1  UNL1       -0.4683
     30 C          61.1966   84.7895    6.7635 C.3     1  UNL1        0.2526
@<TRIPOS>BOND
     1    17    18    1
     2    18     9    1
     3     9    10   ar
     4    10    11   ar
     5     1    11    1
     6     1     2    1
     7     2     3    1
     8     4     3    1
     9     4     5    1
    10     5    19    1
    11    19    20   ar
    12    20    21   ar
    13    21    27    1
    14    27    28    1
    15    21    22   ar
    16    22    23    1
    17    22    24   ar
    18    24    29    1
    19    29    30    1
    20    24    25   ar
    21     5     6    1
    22     6     7    1
    23     8     7    1
    24    11    12   ar
    25    12    13   ar
    26    13    14   ar
    27    14    15    1
    28    14     9   ar
    29     8     1    1
    30     8     4    1
    31    25    19   ar
    32    23    26    1
    33    15    16    1
@<TRIPOS>MOLECULE
*****
 30 33 0 0 0
SMALL
GASTEIGER

@<TRIPOS>ATOM
      1 C          63.6553   84.5767   13.8496 C.3     1  UNL1        0.1400
      2 O          64.5968   85.0478   14.9180 O.3     1  UNL1       -0.3517
      3 C          64.7879   86.5259   14.7485 C.3     1  UNL1        0.1454
      4 C          63.9644   86.9684   13.5754 C.3     1  UNL1        0.0662
      5 C          63.5735   88.1553   12.7457 C.3     1  UNL1        0.1401
      6 O          62.6320   87.6841   11.6774 O.3     1  UNL1       -0.3517
      7 C          62.4409   86.2061   11.8467 C.3     1  UNL1        0.1454
      8 C          63.2644   85.7637   13.0198 C.3     1  UNL1        0.0662
      9 C          61.5059   81.2561   14.1718 C.ar    1  UNL1        0.1719
     10 C          61.9744   82.6665   14.3748 C.ar    1  UNL1        0.0381
     11 C          63.1868   83.1663   13.6465 C.ar    1  UNL1        0.0078
     12 C          63.9307   82.2557   12.7152 C.ar    1  UNL1        0.0014
     13 C          63.4621   80.8452   12.5122 C.ar    1  UNL1        0.0395
     14 C          62.2498   80.3454   13.2404 C.ar    1  UNL1        0.1677
     15 O          61.7813   78.9350   13.0374 O.3     1  UNL1       -0.5029
     16 H          62.2460   78.3662   12.4556 H       1  UNL1        0.2923
     17 C          59.0600   80.3808   14.1337 C.3     1  UNL1        0.2526
     18 O          60.2936   80.7564   14.9001 O.3     1  UNL1       -0.4684
     19 C          64.0420   89.5657   12.9488 C.ar    1  UNL1        0.0108
     20 C          64.3552   90.0605   14.3297 C.ar    1  UNL1        0.0383
     21 C          64.8237   91.4709   14.5328 C.ar    1  UNL1        0.1750
     22 C          64.9789   92.3866   13.3549 C.ar    1  UNL1        0.2024
     23 O          65.4474   93.7970   13.5580 O.3     1  UNL1       -0.5009
     24 C          64.6656   91.8918   11.9739 C.ar    1  UNL1        0.1750
     25 C          64.1972   90.4814   11.7709 C.ar    1  UNL1        0.0383
     26 H          65.6431   94.1060   14.4207 H       1  UNL1        0.2924
     27 O          65.1370   91.9656   15.9138 O.3     1  UNL1       -0.4683
     28 C          66.5033   92.4991   16.2276 C.3     1  UNL1        0.2526
     29 O          64.8209   92.8075   10.7960 O.3     1  UNL1       -0.4683
     30 C          66.1904   93.1888   10.3178 C.3     1  UNL1        0.2526
@<TRIPOS>BOND
     1    17    18    1
     2    18     9    1
     3     9    10   ar
     4    10    11   ar
     5     1    11    1
     6     1     2    1
     7     2     3    1
     8     4     3    1
     9     4     5    1
    10     5    19    1
    11    19    20   ar
    12    20    21   ar
    13    21    27    1
    14    27    28    1
    15    21    22   ar
    16    22    23    1
    17    22    24   ar
    18    24    29    1
    19    29    30    1
    20    24    25   ar
    21     5     6    1
    22     6     7    1
    23     8     7    1
    24    11    12   ar
    25    12    13   ar
    26    13    14   ar
    27    14    15    1
    28    14     9   ar
    29     8     1    1
    30     8     4    1
    31    25    19   ar
    32    23    26    1
    33    15    16    1
@<TRIPOS>MOLECULE
*****
 30 33 0 0 0
SMALL
GASTEIGER

@<TRIPOS>ATOM
      1 C          62.7625   84.3822   12.6847 C.3     1  UNL1        0.1400
      2 O          62.4080   85.1546   11.4487 O.3     1  UNL1       -0.3517
      3 C          62.8415   86.5763   11.6503 C.3     1  UNL1        0.1454
      4 C          63.4638   86.6827   13.0110 C.3     1  UNL1        0.0662
      5 C          64.1164   87.6271   13.9765 C.3     1  UNL1        0.1401
      6 O          64.4708   86.8547   15.2125 O.3     1  UNL1       -0.3517
      7 C          64.0374   85.4330   15.0109 C.3     1  UNL1        0.1454
      8 C          63.4150   85.3266   13.6503 C.3     1  UNL1        0.0662
      9 C          62.6515   80.4580   12.1026 C.ar    1  UNL1        0.1719
     10 C          62.9050   81.9185   11.8726 C.ar    1  UNL1        0.0381
     11 C          62.5089   82.9218   12.9149 C.ar    1  UNL1        0.0078
     12 C          61.8593   82.4648   14.1873 C.ar    1  UNL1        0.0014
     13 C          61.6058   81.0043   14.4174 C.ar    1  UNL1        0.0395
     14 C          62.0019   80.0010   13.3751 C.ar    1  UNL1        0.1677
     15 O          61.7484   78.5406   13.6052 O.3     1  UNL1       -0.5029
     16 H          61.3426   78.2551   14.4001 H       1  UNL1        0.2923
     17 C          62.6614   79.6700    9.6270 C.3     1  UNL1        0.2526
     18 O          63.0476   79.4547   11.0603 O.3     1  UNL1       -0.4684
     19 C          64.3699   89.0875   13.7464 C.ar    1  UNL1        0.0108
     20 C          65.0769   89.8997   14.7906 C.ar    1  UNL1        0.0383
     21 C          65.3305   91.3601   14.5605 C.ar    1  UNL1        0.1750
     22 C          64.8770   92.0083   13.2861 C.ar    1  UNL1        0.2024
     23 O          65.1306   93.4688   13.0560 O.3     1  UNL1       -0.5009
     24 C          64.1700   91.1962   12.2418 C.ar    1  UNL1        0.1750
     25 C          63.9164   89.7358   12.4720 C.ar    1  UNL1        0.0383
     26 H          65.5722   93.9760   13.7084 H       1  UNL1        0.2924
     27 O          66.0375   92.1722   15.6049 O.3     1  UNL1       -0.4683
     28 C          67.5315   92.3019   15.5699 C.3     1  UNL1        0.2526
     29 O          63.7165   91.8444   10.9674 O.3     1  UNL1       -0.4683
     30 C          62.7936   91.1110   10.0399 C.3     1  UNL1        0.2526
@<TRIPOS>BOND
     1    17    18    1
     2    18     9    1
     3     9    10   ar
     4    10    11   ar
     5     1    11    1
     6     1     2    1
     7     2     3    1
     8     4     3    1
     9     4     5    1
    10     5    19    1
    11    19    20   ar
    12    20    21   ar
    13    21    27    1
    14    27    28    1
    15    21    22   ar
    16    22    23    1
    17    22    24   ar
    18    24    29    1
    19    29    30    1
    20    24    25   ar
    21     5     6    1
    22     6     7    1
    23     8     7    1
    24    11    12   ar
    25    12    13   ar
    26    13    14   ar
    27    14    15    1
    28    14     9   ar
    29     8     1    1
    30     8     4    1
    31    25    19   ar
    32    23    26    1
    33    15    16    1
@<TRIPOS>MOLECULE
*****
 30 33 0 0 0
SMALL
GASTEIGER

@<TRIPOS>ATOM
      1 C          63.6574   84.5781   13.8293 C.3     1  UNL1        0.1400
      2 O          64.6067   85.0553   14.8882 O.3     1  UNL1       -0.3517
      3 C          64.7929   86.5332   14.7117 C.3     1  UNL1        0.1454
      4 C          63.9588   86.9694   13.5438 C.3     1  UNL1        0.0662
      5 C          63.5584   88.1523   12.7129 C.3     1  UNL1        0.1401
      6 O          62.6092   87.6750   11.6541 O.3     1  UNL1       -0.3517
      7 C          62.4229   86.1972   11.8305 C.3     1  UNL1        0.1454
      8 C          63.2570   85.7610   12.9985 C.3     1  UNL1        0.0662
      9 C          61.4990   81.2637   14.1559 C.ar    1  UNL1        0.1719
     10 C          61.9660   82.6760   14.3498 C.ar    1  UNL1        0.0381
     11 C          63.1905   83.1659   13.6354 C.ar    1  UNL1        0.0078
     12 C          63.9482   82.2435   12.7269 C.ar    1  UNL1        0.0014
     13 C          63.4812   80.8313   12.5330 C.ar    1  UNL1        0.0395
     14 C          62.2567   80.3414   13.2475 C.ar    1  UNL1        0.1677
     15 O          61.7898   78.9292   13.0535 O.3     1  UNL1       -0.5029
     16 H          62.2630   78.3530   12.4861 H       1  UNL1        0.2923
     17 C          59.0649   80.3581   14.0869 C.3     1  UNL1        0.2526
     18 O          60.2745   80.7739   14.8704 O.3     1  UNL1       -0.4684
     19 C          64.0253   89.5645   12.9069 C.ar    1  UNL1        0.0108
     20 C          64.1852   90.4710   11.7225 C.ar    1  UNL1        0.0383
     21 C          64.6521   91.8832   11.9164 C.ar    1  UNL1        0.1750
     22 C          64.9591   92.3890   13.2948 C.ar    1  UNL1        0.2024
     23 O          65.4260   93.8013   13.4887 O.3     1  UNL1       -0.5009
     24 C          64.7992   91.4826   14.4792 C.ar    1  UNL1        0.1750
     25 C          64.3323   90.0703   14.2852 C.ar    1  UNL1        0.0383
     26 H          65.5258   94.3675   12.7488 H       1  UNL1        0.2924
     27 O          64.8119   92.7896   10.7319 O.3     1  UNL1       -0.4683
     28 C          66.1827   93.1250   10.2237 C.3     1  UNL1        0.2526
     29 O          65.1062   91.9884   15.8576 O.3     1  UNL1       -0.4683
     30 C          66.4931   92.4487   16.1959 C.3     1  UNL1        0.2526
@<TRIPOS>BOND
     1    17    18    1
     2    18     9    1
     3     9    10   ar
     4    10    11   ar
     5     1    11    1
     6     1     2    1
     7     2     3    1
     8     4     3    1
     9     4     5    1
    10     5    19    1
    11    19    20   ar
    12    20    21   ar
    13    21    27    1
    14    27    28    1
    15    21    22   ar
    16    22    23    1
    17    22    24   ar
    18    24    29    1
    19    29    30    1
    20    24    25   ar
    21     5     6    1
    22     6     7    1
    23     8     7    1
    24    11    12   ar
    25    12    13   ar
    26    13    14   ar
    27    14    15    1
    28    14     9   ar
    29     8     1    1
    30     8     4    1
    31    25    19   ar
    32    23    26    1
    33    15    16    1
@<TRIPOS>MOLECULE
*****
 30 33 0 0 0
SMALL
GASTEIGER

@<TRIPOS>ATOM
      1 C          62.7817   84.3713   12.6830 C.3     1  UNL1        0.1400
      2 O          62.4657   85.1284   11.4272 O.3     1  UNL1       -0.3517
      3 C          62.8888   86.5536   11.6264 C.3     1  UNL1        0.1454
      4 C          63.4663   86.6773   13.0053 C.3     1  UNL1        0.0662
      5 C          64.0846   87.6346   13.9806 C.3     1  UNL1        0.1401
      6 O          64.4005   86.8775   15.2363 O.3     1  UNL1       -0.3517
      7 C          63.9775   85.4523   15.0372 C.3     1  UNL1        0.1454
      8 C          63.4000   85.3286   13.6583 C.3     1  UNL1        0.0662
      9 C          62.6546   80.4447   12.1208 C.ar    1  UNL1        0.1719
     10 C          62.9119   81.9031   11.8823 C.ar    1  UNL1        0.0381
     11 C          62.5244   82.9129   12.9216 C.ar    1  UNL1        0.0078
     12 C          61.8797   82.4643   14.1995 C.ar    1  UNL1        0.0014
     13 C          61.6225   81.0058   14.4380 C.ar    1  UNL1        0.0395
     14 C          62.0099   79.9961   13.3987 C.ar    1  UNL1        0.1677
     15 O          61.7527   78.5377   13.6373 O.3     1  UNL1       -0.5029
     16 H          61.3499   78.2574   14.4356 H       1  UNL1        0.2923
     17 C          62.6883   79.6664    9.6423 C.3     1  UNL1        0.2526
     18 O          63.0421   79.4350   11.0814 O.3     1  UNL1       -0.4684
     19 C          64.3419   89.0930   13.7420 C.ar    1  UNL1        0.0108
     20 C          63.8762   89.7386   12.4707 C.ar    1  UNL1        0.0383
     21 C          64.1335   91.1969   12.2321 C.ar    1  UNL1        0.1750
     22 C          64.8564   92.0098   13.2648 C.ar    1  UNL1        0.2024
     23 O          65.1136   93.4682   13.0261 O.3     1  UNL1       -0.5009
     24 C          65.3221   91.3643   14.5362 C.ar    1  UNL1        0.1750
     25 C          65.0648   89.9059   14.7748 C.ar    1  UNL1        0.0383
     26 H          64.8227   93.8714   12.2319 H       1  UNL1        0.2924
     27 O          63.6677   91.8424   10.9606 O.3     1  UNL1       -0.4683
     28 C          62.7672   91.0921   10.0246 C.3     1  UNL1        0.2526
     29 O          66.0450   92.1771   15.5690 O.3     1  UNL1       -0.4683
     30 C          67.5160   92.4339   15.4266 C.3     1  UNL1        0.2526
@<TRIPOS>BOND
     1    17    18    1
     2    18     9    1
     3     9    10   ar
     4    10    11   ar
     5     1    11    1
     6     1     2    1
     7     2     3    1
     8     4     3    1
     9     4     5    1
    10     5    19    1
    11    19    20   ar
    12    20    21   ar
    13    21    27    1
    14    27    28    1
    15    21    22   ar
    16    22    23    1
    17    22    24   ar
    18    24    29    1
    19    29    30    1
    20    24    25   ar
    21     5     6    1
    22     6     7    1
    23     8     7    1
    24    11    12   ar
    25    12    13   ar
    26    13    14   ar
    27    14    15    1
    28    14     9   ar
    29     8     1    1
    30     8     4    1
    31    25    19   ar
    32    23    26    1
    33    15    16    1
