@<TRIPOS>MOLECULE
*****
 41 46 0 0 0
SMALL
GASTEIGER

@<TRIPOS>ATOM
      1 N          62.3050   85.8920   10.7412 N.am    1  UNL1       -0.1909
      2 C          62.4554   87.1473   11.5486 C.2     1  UNL1        0.3173
      3 O          63.2194   87.2838   12.8321 O.2     1  UNL1       -0.2516
      4 N          61.7074   88.2420   10.8471 N.am    1  UNL1       -0.2544
      5 C          61.0948   87.6634    9.6061 C.3     1  UNL1        0.1341
      6 C          60.5469   86.9480    8.4069 C.3     1  UNL1        0.0446
      7 C          59.7117   87.6912    7.4070 C.3     1  UNL1        0.0745
      8 N          59.4243   89.1499    7.6062 N.3     1  UNL1       -0.2688
      9 C          59.9721   89.8653    8.8054 C.3     1  UNL1        0.0745
     10 C          60.8074   89.1221    9.8053 C.3     1  UNL1        0.0446
     11 C          61.4641   86.2110    9.5407 C.2     1  UNL1        0.2525
     12 O          61.0630   85.2469    8.4638 O.2     1  UNL1       -0.2724
     13 C          63.1616   82.5622   12.7232 C.ar    1  UNL1        0.1400
     14 C          64.0670   81.8748   11.7445 C.ar    1  UNL1        0.0370
     15 C          64.3850   82.5265   10.4315 C.ar    1  UNL1        0.0044
     16 C          63.7977   83.8655   10.0971 C.ar    1  UNL1        0.0156
     17 C          62.8923   84.5529   11.0757 C.ar    1  UNL1        0.0652
     18 C          62.5743   83.9013   12.3887 C.ar    1  UNL1        0.0522
     19 C          61.5100   81.2563   14.2453 C.3     1  UNL1        0.2525
     20 O          62.8436   81.9105   14.0362 O.3     1  UNL1       -0.4714
     21 C          61.5923   89.6654   11.3058 C.3     1  UNL1        0.1243
     22 C          62.8233   90.4312   11.6911 C.ar    1  UNL1        0.0252
     23 C          63.3663   90.3258   13.0854 C.ar    1  UNL1       -0.0004
     24 C          64.5973   91.0914   13.4707 C.ar    1  UNL1       -0.0001
     25 C          65.2852   91.9625   12.4618 C.ar    1  UNL1        0.0023
     26 C          64.7422   92.0680   11.0675 C.ar    1  UNL1        0.0294
     27 C          63.5112   91.3023   10.6822 C.ar    1  UNL1        0.1377
     28 F          62.9682   91.4077    9.2879 F       1  UNL1       -0.2044
     29 C          58.5890   89.8931    6.6062 C.3     1  UNL1        0.0991
     30 C          59.2501   90.7165    5.5409 C.ar    1  UNL1       -0.0061
     31 C          58.4410   91.6878    4.7335 C.ar    1  UNL1       -0.0029
     32 C          59.1022   92.5112    3.6682 C.ar    1  UNL1       -0.0002
     33 C          60.5724   92.3633    3.4103 C.ar    1  UNL1        0.0015
     34 C          61.3815   91.3920    4.2177 C.ar    1  UNL1       -0.0002
     35 C          60.7204   90.5686    5.2830 C.ar    1  UNL1       -0.0029
     36 C          61.2336   93.1867    2.3450 C.ar    1  UNL1        0.0192
     37 C          62.5847   92.7947    1.8245 C.ar    1  UNL1        0.0031
     38 C          63.2458   93.6182    0.7591 C.ar    1  UNL1        0.0207
     39 C          62.5558   94.8335    0.2144 C.ar    1  UNL1        0.0989
     40 N          61.2048   95.2255    0.7349 N.ar    1  UNL1       -0.2423
     41 C          60.5436   94.4021    1.8002 C.ar    1  UNL1        0.0988
@<TRIPOS>BOND
     1    19    20    1
     2    20    13    1
     3    13    14   ar
     4    14    15   ar
     5    15    16   ar
     6    16    17   ar
     7    17     1    1
     8     1     2   am
     9     2     3    2
    10     2     4   am
    11     4    21    1
    12    21    22    1
    13    22    23   ar
    14    23    24   ar
    15    24    25   ar
    16    25    26   ar
    17    26    27   ar
    18    27    28    1
    19     4     5    1
    20     5     6    1
    21     6     7    1
    22     7     8    1
    23     8    29    1
    24    29    30    1
    25    30    31   ar
    26    31    32   ar
    27    32    33   ar
    28    33    36    1
    29    36    37   ar
    30    37    38   ar
    31    38    39   ar
    32    39    40   ar
    33    40    41   ar
    34    33    34   ar
    35    34    35   ar
    36     8     9    1
    37     9    10    1
    38     5    11    1
    39    11    12    2
    40    17    18   ar
    41    18    13   ar
    42    11     1   am
    43    27    22   ar
    44    10     5    1
    45    35    30   ar
    46    41    36   ar
@<TRIPOS>MOLECULE
*****
 41 46 0 0 0
SMALL
GASTEIGER

@<TRIPOS>ATOM
      1 N          63.2486   89.4132   12.3381 N.am    1  UNL1       -0.1909
      2 C          63.0355   87.9318   12.4392 C.2     1  UNL1        0.3173
      3 O          63.6566   87.0190   13.4545 O.2     1  UNL1       -0.2516
      4 N          62.0923   87.5236   11.3466 N.am    1  UNL1       -0.2544
      5 C          61.7224   88.7527   10.5703 C.3     1  UNL1        0.1341
      6 C          61.4457   90.0616    9.8919 C.3     1  UNL1        0.0446
      7 C          60.5232   90.1136    8.7103 C.3     1  UNL1        0.0745
      8 N          59.8774   88.8568    8.2071 N.3     1  UNL1       -0.2688
      9 C          60.1541   87.5479    8.8854 C.3     1  UNL1        0.0745
     10 C          61.0766   87.4958   10.0670 C.3     1  UNL1        0.0446
     11 C          62.4370   89.9205   11.1830 C.2     1  UNL1        0.2525
     12 O          62.3546   91.3454   10.7217 O.2     1  UNL1       -0.2724
     13 C          65.8924   92.1162   13.5437 C.ar    1  UNL1        0.1400
     14 C          65.8634   91.8990   15.0277 C.ar    1  UNL1        0.0370
     15 C          64.9628   90.8531   15.6150 C.ar    1  UNL1        0.0044
     16 C          64.0912   90.0245   14.7184 C.ar    1  UNL1        0.0156
     17 C          64.1202   90.2418   13.2346 C.ar    1  UNL1        0.0652
     18 C          65.0208   91.2877   12.6472 C.ar    1  UNL1        0.0522
     19 C          66.2986   94.0389   11.8441 C.3     1  UNL1        0.2525
     20 O          66.7930   93.1621   12.9564 O.3     1  UNL1       -0.4714
     21 C          61.6045   86.1309   11.0776 C.3     1  UNL1        0.1243
     22 C          62.5468   84.9699   11.1977 C.ar    1  UNL1        0.0252
     23 C          62.7145   84.2735   12.5156 C.ar    1  UNL1       -0.0004
     24 C          63.6567   83.1125   12.6358 C.ar    1  UNL1       -0.0001
     25 C          64.4311   82.6480   11.4381 C.ar    1  UNL1        0.0023
     26 C          64.2634   83.3444   10.1202 C.ar    1  UNL1        0.0294
     27 C          63.3212   84.5054   10.0000 C.ar    1  UNL1        0.1377
     28 F          63.1534   85.2018    8.6821 F       1  UNL1       -0.2044
     29 C          58.9548   88.9089    7.0254 C.3     1  UNL1        0.0991
     30 C          59.1349   89.9687    5.9794 C.ar    1  UNL1       -0.0061
     31 C          60.5007   90.2552    5.4294 C.ar    1  UNL1       -0.0029
     32 C          60.6808   91.3152    4.3833 C.ar    1  UNL1       -0.0002
     33 C          59.4952   92.0886    3.8874 C.ar    1  UNL1        0.0015
     34 C          58.1294   91.8021    4.4374 C.ar    1  UNL1       -0.0002
     35 C          57.9492   90.7422    5.4834 C.ar    1  UNL1       -0.0029
     36 C          59.6753   93.1485    2.8414 C.ar    1  UNL1        0.0192
     37 C          59.4612   92.8179    1.3940 C.ar    1  UNL1        0.0031
     38 C          59.6414   93.8779    0.3480 C.ar    1  UNL1        0.0207
     39 C          60.0356   95.2683    0.7494 C.ar    1  UNL1        0.0989
     40 N          60.2496   95.5989    2.1968 N.ar    1  UNL1       -0.2423
     41 C          60.0695   94.5390    3.2428 C.ar    1  UNL1        0.0988
@<TRIPOS>BOND
     1    19    20    1
     2    20    13    1
     3    13    14   ar
     4    14    15   ar
     5    15    16   ar
     6    16    17   ar
     7    17     1    1
     8     1     2   am
     9     2     3    2
    10     2     4   am
    11     4    21    1
    12    21    22    1
    13    22    23   ar
    14    23    24   ar
    15    24    25   ar
    16    25    26   ar
    17    26    27   ar
    18    27    28    1
    19     4     5    1
    20     5     6    1
    21     6     7    1
    22     7     8    1
    23     8    29    1
    24    29    30    1
    25    30    31   ar
    26    31    32   ar
    27    32    33   ar
    28    33    36    1
    29    36    37   ar
    30    37    38   ar
    31    38    39   ar
    32    39    40   ar
    33    40    41   ar
    34    33    34   ar
    35    34    35   ar
    36     8     9    1
    37     9    10    1
    38     5    11    1
    39    11    12    2
    40    17    18   ar
    41    18    13   ar
    42    11     1   am
    43    27    22   ar
    44    10     5    1
    45    35    30   ar
    46    41    36   ar
@<TRIPOS>MOLECULE
*****
 41 46 0 0 0
SMALL
GASTEIGER

@<TRIPOS>ATOM
      1 N          62.7984   83.7969   13.0852 N.am    1  UNL1       -0.1909
      2 C          62.4011   84.4047   11.7727 C.2     1  UNL1        0.3173
      3 O          61.8128   83.6717   10.6038 O.2     1  UNL1       -0.2516
      4 N          62.6956   85.8742   11.8343 N.am    1  UNL1       -0.2544
      5 C          63.2749   86.1747   13.1850 C.3     1  UNL1        0.1341
      6 C          63.8383   86.3222   14.5673 C.3     1  UNL1        0.0446
      7 C          64.2769   87.6698   15.0586 C.3     1  UNL1        0.0745
      8 N          64.1523   88.8700   14.1675 N.3     1  UNL1       -0.2688
      9 C          63.5889   88.7225   12.7852 C.3     1  UNL1        0.0745
     10 C          63.1502   87.3749   12.2939 C.3     1  UNL1        0.0446
     11 C          63.3384   84.8908   13.9581 C.2     1  UNL1        0.2525
     12 O          63.8518   84.7292   15.3582 O.2     1  UNL1       -0.2724
     13 C          61.2176   80.3319   14.2007 C.ar    1  UNL1        0.1400
     14 C          62.4341   79.4543   14.2074 C.ar    1  UNL1        0.0370
     15 C          63.7720   80.0244   13.8399 C.ar    1  UNL1        0.0044
     16 C          63.8934   81.4719   13.4659 C.ar    1  UNL1        0.0156
     17 C          62.6770   82.3494   13.4593 C.ar    1  UNL1        0.0652
     18 C          61.3390   81.7794   13.8267 C.ar    1  UNL1        0.0522
     19 C          58.6243   80.4889   14.1865 C.3     1  UNL1        0.2525
     20 O          59.8797   79.7619   14.5681 O.3     1  UNL1       -0.4714
     21 C          62.4534   86.8687   10.7379 C.3     1  UNL1        0.1243
     22 C          61.9060   86.4117    9.4182 C.ar    1  UNL1        0.0252
     23 C          62.7757   85.6363    8.4735 C.ar    1  UNL1       -0.0004
     24 C          62.2283   85.1793    7.1539 C.ar    1  UNL1       -0.0001
     25 C          60.8113   85.4976    6.7789 C.ar    1  UNL1        0.0023
     26 C          59.9416   86.2730    7.7235 C.ar    1  UNL1        0.0294
     27 C          60.4889   86.7300    9.0432 C.ar    1  UNL1        0.1377
     28 F          59.6192   87.5054    9.9878 F       1  UNL1       -0.2044
     29 C          64.5910   90.2177   14.6588 C.3     1  UNL1        0.0991
     30 C          65.0649   91.2538   13.6833 C.ar    1  UNL1       -0.0061
     31 C          66.3083   92.0418   13.9710 C.ar    1  UNL1       -0.0029
     32 C          66.7822   93.0781   12.9954 C.ar    1  UNL1       -0.0002
     33 C          66.0126   93.3262   11.7321 C.ar    1  UNL1        0.0015
     34 C          64.7691   92.5382   11.4443 C.ar    1  UNL1       -0.0002
     35 C          64.2952   91.5021   12.4198 C.ar    1  UNL1       -0.0029
     36 C          66.4865   94.3624   10.7565 C.ar    1  UNL1        0.0192
     37 C          66.3112   95.8196   11.0660 C.ar    1  UNL1        0.0031
     38 C          66.7852   96.8558   10.0903 C.ar    1  UNL1        0.0207
     39 C          67.4343   96.4348    8.8053 C.ar    1  UNL1        0.0989
     40 N          67.6095   94.9775    8.4959 N.ar    1  UNL1       -0.2423
     41 C          67.1357   93.9414    9.4714 C.ar    1  UNL1        0.0988
@<TRIPOS>BOND
     1    19    20    1
     2    20    13    1
     3    13    14   ar
     4    14    15   ar
     5    15    16   ar
     6    16    17   ar
     7    17     1    1
     8     1     2   am
     9     2     3    2
    10     2     4   am
    11     4    21    1
    12    21    22    1
    13    22    23   ar
    14    23    24   ar
    15    24    25   ar
    16    25    26   ar
    17    26    27   ar
    18    27    28    1
    19     4     5    1
    20     5     6    1
    21     6     7    1
    22     7     8    1
    23     8    29    1
    24    29    30    1
    25    30    31   ar
    26    31    32   ar
    27    32    33   ar
    28    33    36    1
    29    36    37   ar
    30    37    38   ar
    31    38    39   ar
    32    39    40   ar
    33    40    41   ar
    34    33    34   ar
    35    34    35   ar
    36     8     9    1
    37     9    10    1
    38     5    11    1
    39    11    12    2
    40    17    18   ar
    41    18    13   ar
    42    11     1   am
    43    27    22   ar
    44    10     5    1
    45    35    30   ar
    46    41    36   ar
