@<TRIPOS>MOLECULE
*****
 28 31 0 0 0
SMALL
GASTEIGER

@<TRIPOS>ATOM
      1 C          64.0416   87.3607   15.1785 C.ar    1  UNL1        0.0366
      2 C          64.5640   88.4430   14.2809 C.ar    1  UNL1       -0.0012
      3 C          64.3294   89.8833   14.6279 C.ar    1  UNL1       -0.0223
      4 C          63.5726   90.2414   15.8724 C.ar    1  UNL1       -0.0012
      5 C          63.0503   89.1590   16.7700 C.ar    1  UNL1        0.0366
      6 C          63.2848   87.7187   16.4231 C.ar    1  UNL1        0.1385
      7 C          64.8518   90.9657   13.7302 C.3     1  UNL1        0.0224
      8 C          64.2044   91.2144   12.4002 C.3     1  UNL1        0.0057
      9 C          64.7268   92.2967   11.5025 C.3     1  UNL1        0.0163
     10 C          65.8965   93.1303   11.9349 C.3     1  UNL1        0.0577
     11 C          66.5438   92.8816   13.2650 C.3     1  UNL1        0.0163
     12 C          66.0215   91.7992   14.1626 C.3     1  UNL1        0.0057
     13 N          66.4188   94.2126   11.0373 N.3     1  UNL1       -0.2698
     14 C          67.1964   93.8551    9.8054 C.3     1  UNL1        0.1046
     15 C          67.7187   94.9373    8.9077 C.3     1  UNL1        0.1595
     16 O          67.4634   96.3772    9.2419 O.3     1  UNL1       -0.3508
     17 C          66.6858   96.7348   10.4738 C.3     1  UNL1        0.1595
     18 C          66.1635   95.6524   11.3715 C.3     1  UNL1        0.1046
     19 O          62.7624   86.6363   17.3207 O.3     1  UNL1       -0.4754
     20 C          63.0286   85.1969   16.9933 C.3     1  UNL1        0.2068
     21 C          62.3231   84.5471   15.8401 C.3     1  UNL1        0.0646
     22 C          62.9646   83.3988   15.1191 C.3     1  UNL1        0.0759
     23 N          63.1958   83.4775   13.6391 N.3     1  UNL1       -0.2726
     24 C          64.0505   82.4503   12.9578 C.3     1  UNL1        0.0721
     25 C          64.2817   82.5289   11.4779 C.3     1  UNL1        0.0174
     26 C          63.6581   83.6349   10.6792 C.3     1  UNL1        0.0029
     27 C          62.8034   84.6622   11.3604 C.3     1  UNL1        0.0174
     28 C          62.5722   84.5835   12.8404 C.3     1  UNL1        0.0721
@<TRIPOS>BOND
     1     1     2   ar
     2     2     3   ar
     3     7     3    1
     4     7     8    1
     5     8     9    1
     6     9    10    1
     7    10    13    1
     8    13    14    1
     9    14    15    1
    10    15    16    1
    11    16    17    1
    12    17    18    1
    13    10    11    1
    14    11    12    1
    15     3     4   ar
    16     4     5   ar
    17     5     6   ar
    18     6    19    1
    19    19    20    1
    20    20    21    1
    21    21    22    1
    22    22    23    1
    23    23    24    1
    24    24    25    1
    25    25    26    1
    26    26    27    1
    27    27    28    1
    28     6     1   ar
    29    28    23    1
    30    12     7    1
    31    18    13    1
@<TRIPOS>MOLECULE
*****
 28 31 0 0 0
SMALL
GASTEIGER

@<TRIPOS>ATOM
      1 C          63.7176   90.6722   12.4005 C.ar    1  UNL1        0.0366
      2 C          63.3954   89.2086   12.3375 C.ar    1  UNL1       -0.0012
      3 C          63.8795   88.2868   13.4173 C.ar    1  UNL1       -0.0223
      4 C          64.6859   88.8287   14.5601 C.ar    1  UNL1       -0.0012
      5 C          65.0082   90.2923   14.6231 C.ar    1  UNL1        0.0366
      6 C          64.5240   91.2140   13.5433 C.ar    1  UNL1        0.1385
      7 C          63.5573   86.8232   13.3543 C.3     1  UNL1        0.0224
      8 C          63.9915   85.9112   14.4632 C.3     1  UNL1        0.0057
      9 C          63.6693   84.4476   14.4002 C.3     1  UNL1        0.0163
     10 C          62.9128   83.8959   13.2282 C.3     1  UNL1        0.0577
     11 C          62.4785   84.8079   12.1193 C.3     1  UNL1        0.0163
     12 C          62.8008   86.2716   12.1824 C.3     1  UNL1        0.0057
     13 N          62.5906   82.4323   13.1652 N.3     1  UNL1       -0.2698
     14 C          63.1537   81.5872   12.0613 C.3     1  UNL1        0.1046
     15 C          62.8315   80.1236   11.9983 C.3     1  UNL1        0.1595
     16 O          61.9461   79.5050   13.0393 O.3     1  UNL1       -0.3508
     17 C          61.3829   80.3502   14.1432 C.3     1  UNL1        0.1595
     18 C          61.7052   81.8138   14.2062 C.3     1  UNL1        0.1046
     19 O          64.8462   92.6777   13.6063 O.3     1  UNL1       -0.4754
     20 C          66.2730   93.1274   13.7163 C.3     1  UNL1        0.2068
     21 C          67.2577   92.7671   12.6437 C.3     1  UNL1        0.0646
     22 C          66.8658   92.8724   11.1997 C.3     1  UNL1        0.0759
     23 N          66.9164   94.2002   10.5036 N.3     1  UNL1       -0.2726
     24 C          66.2561   95.3967   11.1220 C.3     1  UNL1        0.0721
     25 C          66.3067   96.7245   10.4261 C.3     1  UNL1        0.0174
     26 C          67.0174   96.8557    9.1117 C.3     1  UNL1        0.0029
     27 C          67.6776   95.6592    8.4933 C.3     1  UNL1        0.0174
     28 C          67.6271   94.3314    9.1893 C.3     1  UNL1        0.0721
@<TRIPOS>BOND
     1     1     2   ar
     2     2     3   ar
     3     7     3    1
     4     7     8    1
     5     8     9    1
     6     9    10    1
     7    10    13    1
     8    13    14    1
     9    14    15    1
    10    15    16    1
    11    16    17    1
    12    17    18    1
    13    10    11    1
    14    11    12    1
    15     3     4   ar
    16     4     5   ar
    17     5     6   ar
    18     6    19    1
    19    19    20    1
    20    20    21    1
    21    21    22    1
    22    22    23    1
    23    23    24    1
    24    24    25    1
    25    25    26    1
    26    26    27    1
    27    27    28    1
    28     6     1   ar
    29    28    23    1
    30    12     7    1
    31    18    13    1
@<TRIPOS>MOLECULE
*****
 28 31 0 0 0
SMALL
GASTEIGER

@<TRIPOS>ATOM
      1 C          64.6761   89.6968   14.9613 C.ar    1  UNL1        0.0366
      2 C          64.4645   88.2405   14.6707 C.ar    1  UNL1       -0.0012
      3 C          63.8054   87.8191   13.3908 C.ar    1  UNL1       -0.0223
      4 C          63.3579   88.8541   12.4016 C.ar    1  UNL1       -0.0012
      5 C          63.5694   90.3103   12.6922 C.ar    1  UNL1        0.0366
      6 C          64.2285   90.7317   13.9721 C.ar    1  UNL1        0.1385
      7 C          63.5939   86.3628   13.1002 C.3     1  UNL1        0.0224
      8 C          62.7900   85.9457   11.9044 C.3     1  UNL1        0.0057
      9 C          62.5785   84.4894   11.6138 C.3     1  UNL1        0.0163
     10 C          63.1709   83.4502   12.5189 C.3     1  UNL1        0.0577
     11 C          63.9748   83.8673   13.7146 C.3     1  UNL1        0.0163
     12 C          64.1863   85.3236   14.0053 C.3     1  UNL1        0.0057
     13 N          62.9594   81.9939   12.2283 N.3     1  UNL1       -0.2698
     14 C          63.1775   81.4666   10.8411 C.3     1  UNL1        0.1046
     15 C          62.9660   80.0103   10.5504 C.3     1  UNL1        0.1595
     16 O          62.5363   79.0813   11.6470 O.3     1  UNL1       -0.3508
     17 C          62.3182   79.6087   13.0342 C.3     1  UNL1        0.1595
     18 C          62.5297   81.0650   13.3248 C.3     1  UNL1        0.1046
     19 O          64.4400   92.1880   14.2627 O.3     1  UNL1       -0.4754
     20 C          65.7634   92.6642   14.7842 C.3     1  UNL1        0.2068
     21 C          66.7296   93.3493   13.8639 C.3     1  UNL1        0.0646
     22 C          66.2388   93.9752   12.5921 C.3     1  UNL1        0.0759
     23 N          66.9309   93.6789   11.2946 N.3     1  UNL1       -0.2726
     24 C          67.5165   92.3197   11.0503 C.3     1  UNL1        0.0721
     25 C          68.2085   92.0234    9.7530 C.3     1  UNL1        0.0174
     26 C          68.3149   93.0862    8.6999 C.3     1  UNL1        0.0029
     27 C          67.7293   94.4454    8.9442 C.3     1  UNL1        0.0174
     28 C          67.0373   94.7417   10.2416 C.3     1  UNL1        0.0721
@<TRIPOS>BOND
     1     1     2   ar
     2     2     3   ar
     3     7     3    1
     4     7     8    1
     5     8     9    1
     6     9    10    1
     7    10    13    1
     8    13    14    1
     9    14    15    1
    10    15    16    1
    11    16    17    1
    12    17    18    1
    13    10    11    1
    14    11    12    1
    15     3     4   ar
    16     4     5   ar
    17     5     6   ar
    18     6    19    1
    19    19    20    1
    20    20    21    1
    21    21    22    1
    22    22    23    1
    23    23    24    1
    24    24    25    1
    25    25    26    1
    26    26    27    1
    27    27    28    1
    28     6     1   ar
    29    28    23    1
    30    12     7    1
    31    18    13    1
@<TRIPOS>MOLECULE
*****
 28 31 0 0 0
SMALL
GASTEIGER

@<TRIPOS>ATOM
      1 C          64.9832   90.2642   14.6394 C.ar    1  UNL1        0.0366
      2 C          64.6619   88.8001   14.5825 C.ar    1  UNL1       -0.0012
      3 C          63.8914   88.2459   13.4210 C.ar    1  UNL1       -0.0223
      4 C          63.4421   89.1558   12.3163 C.ar    1  UNL1       -0.0012
      5 C          63.7633   90.6198   12.3732 C.ar    1  UNL1        0.0366
      6 C          64.5339   91.1740   13.5348 C.ar    1  UNL1        0.1385
      7 C          63.5702   86.7818   13.3641 C.3     1  UNL1        0.0224
      8 C          62.7941   86.2287   12.2058 C.3     1  UNL1        0.0057
      9 C          62.4728   84.7646   12.1489 C.3     1  UNL1        0.0163
     10 C          62.9277   83.8536   13.2504 C.3     1  UNL1        0.0577
     11 C          63.7038   84.4067   14.4087 C.3     1  UNL1        0.0163
     12 C          64.0250   85.8708   14.4655 C.3     1  UNL1        0.0057
     13 N          62.6065   82.3895   13.1935 N.3     1  UNL1       -0.2698
     14 C          61.7454   81.7688   14.2533 C.3     1  UNL1        0.1046
     15 C          61.4242   80.3048   14.1964 C.3     1  UNL1        0.1595
     16 O          61.9640   79.4613   13.0796 O.3     1  UNL1       -0.3508
     17 C          62.8250   80.0820   12.0197 C.3     1  UNL1        0.1595
     18 C          63.1463   81.5461   12.0767 C.3     1  UNL1        0.1046
     19 O          64.8551   92.6382   13.5916 O.3     1  UNL1       -0.4754
     20 C          66.2749   93.0881   13.7697 C.3     1  UNL1        0.2068
     21 C          67.2678   92.8935   12.6625 C.3     1  UNL1        0.0646
     22 C          66.8211   92.9694   11.2325 C.3     1  UNL1        0.0759
     23 N          66.9218   94.2650   10.4831 N.3     1  UNL1       -0.2726
     24 C          67.4806   94.2848    9.0913 C.3     1  UNL1        0.0721
     25 C          67.5812   95.5803    8.3419 C.3     1  UNL1        0.0174
     26 C          67.1231   96.8559    8.9844 C.3     1  UNL1        0.0029
     27 C          66.5642   96.8361   10.3762 C.3     1  UNL1        0.0174
     28 C          66.4636   95.5406   11.1256 C.3     1  UNL1        0.0721
@<TRIPOS>BOND
     1     1     2   ar
     2     2     3   ar
     3     7     3    1
     4     7     8    1
     5     8     9    1
     6     9    10    1
     7    10    13    1
     8    13    14    1
     9    14    15    1
    10    15    16    1
    11    16    17    1
    12    17    18    1
    13    10    11    1
    14    11    12    1
    15     3     4   ar
    16     4     5   ar
    17     5     6   ar
    18     6    19    1
    19    19    20    1
    20    20    21    1
    21    21    22    1
    22    22    23    1
    23    23    24    1
    24    24    25    1
    25    25    26    1
    26    26    27    1
    27    27    28    1
    28     6     1   ar
    29    28    23    1
    30    12     7    1
    31    18    13    1
@<TRIPOS>MOLECULE
*****
 28 31 0 0 0
SMALL
GASTEIGER

@<TRIPOS>ATOM
      1 C          62.3160   85.0567   12.3230 C.ar    1  UNL1        0.0366
      2 C          61.6008   86.0263   11.4295 C.ar    1  UNL1       -0.0012
      3 C          61.8412   85.9999    9.9492 C.ar    1  UNL1       -0.0223
      4 C          62.7968   85.0037    9.3622 C.ar    1  UNL1       -0.0012
      5 C          63.5120   84.0341   10.2556 C.ar    1  UNL1        0.0366
      6 C          63.2716   84.0605   11.7360 C.ar    1  UNL1        0.1385
      7 C          61.1260   86.9696    9.0557 C.3     1  UNL1        0.0224
      8 C          61.1630   88.4378    9.3606 C.3     1  UNL1        0.0057
      9 C          60.4478   89.4075    8.4672 C.3     1  UNL1        0.0163
     10 C          59.6957   88.9090    7.2689 C.3     1  UNL1        0.0577
     11 C          59.6587   87.4408    6.9640 C.3     1  UNL1        0.0163
     12 C          60.3739   86.4711    7.8575 C.3     1  UNL1        0.0057
     13 N          58.9805   89.8788    6.3755 N.3     1  UNL1       -0.2698
     14 C          57.4850   89.8367    6.2678 C.3     1  UNL1        0.1046
     15 C          56.7698   90.8064    5.3745 C.3     1  UNL1        0.1595
     16 O          57.5502   91.8183    4.5888 O.3     1  UNL1       -0.3508
     17 C          59.0457   91.8603    4.6965 C.3     1  UNL1        0.1595
     18 C          59.7609   90.8905    5.5899 C.3     1  UNL1        0.1046
     19 O          63.9868   83.0908   12.6295 O.3     1  UNL1       -0.4754
     20 C          63.8814   83.2259   14.1196 C.3     1  UNL1        0.2068
     21 C          64.4915   84.4093   14.8105 C.3     1  UNL1        0.0646
     22 C          63.6832   85.2026   15.7940 C.3     1  UNL1        0.0759
     23 N          63.6837   86.7012   15.7294 N.3     1  UNL1       -0.2726
     24 C          63.0692   87.5000   16.8405 C.3     1  UNL1        0.0721
     25 C          63.0698   88.9985   16.7760 C.3     1  UNL1        0.0174
     26 C          63.6848   89.6984   15.6005 C.3     1  UNL1        0.0029
     27 C          64.2992   88.8997   14.4894 C.3     1  UNL1        0.0174
     28 C          64.2987   87.4011   14.5539 C.3     1  UNL1        0.0721
@<TRIPOS>BOND
     1     1     2   ar
     2     2     3   ar
     3     7     3    1
     4     7     8    1
     5     8     9    1
     6     9    10    1
     7    10    13    1
     8    13    14    1
     9    14    15    1
    10    15    16    1
    11    16    17    1
    12    17    18    1
    13    10    11    1
    14    11    12    1
    15     3     4   ar
    16     4     5   ar
    17     5     6   ar
    18     6    19    1
    19    19    20    1
    20    20    21    1
    21    21    22    1
    22    22    23    1
    23    23    24    1
    24    24    25    1
    25    25    26    1
    26    26    27    1
    27    27    28    1
    28     6     1   ar
    29    28    23    1
    30    12     7    1
    31    18    13    1
@<TRIPOS>MOLECULE
*****
 28 31 0 0 0
SMALL
GASTEIGER

@<TRIPOS>ATOM
      1 C          63.0391   90.4308   10.6788 C.ar    1  UNL1        0.0366
      2 C          62.8232   88.9601   10.8801 C.ar    1  UNL1       -0.0012
      3 C          63.3008   88.2972   12.1380 C.ar    1  UNL1       -0.0223
      4 C          63.9944   89.1048   13.1946 C.ar    1  UNL1       -0.0012
      5 C          64.2104   90.5755   12.9933 C.ar    1  UNL1        0.0366
      6 C          63.7328   91.2384   11.7354 C.ar    1  UNL1        0.1385
      7 C          63.0848   86.8265   12.3392 C.3     1  UNL1        0.0224
      8 C          62.3488   86.0280   11.3044 C.3     1  UNL1        0.0057
      9 C          62.1328   84.5574   11.5056 C.3     1  UNL1        0.0163
     10 C          62.6528   83.8851   12.7417 C.3     1  UNL1        0.0577
     11 C          63.3888   84.6835   13.7765 C.3     1  UNL1        0.0163
     12 C          63.6048   86.1543   13.5752 C.3     1  UNL1        0.0057
     13 N          62.4367   82.4145   12.9428 N.3     1  UNL1       -0.2698
     14 C          62.9722   81.4339   11.9419 C.3     1  UNL1        0.1046
     15 C          62.7561   79.9633   12.1431 C.3     1  UNL1        0.1595
     16 O          62.0047   79.4731   13.3453 O.3     1  UNL1       -0.3508
     17 C          61.4692   80.4537   14.3462 C.3     1  UNL1        0.1595
     18 C          61.6853   81.9244   14.1450 C.3     1  UNL1        0.1046
     19 O          63.9488   92.7091   11.5342 O.3     1  UNL1       -0.4754
     20 C          64.8595   93.1912   10.4441 C.3     1  UNL1        0.2068
     21 C          66.1742   93.8247   10.7906 C.3     1  UNL1        0.0646
     22 C          67.2611   93.0023   11.4171 C.3     1  UNL1        0.0759
     23 N          67.2883   92.8025   12.9035 N.3     1  UNL1       -0.2726
     24 C          68.0780   91.6722   13.4940 C.3     1  UNL1        0.0721
     25 C          68.1053   91.4724   14.9803 C.3     1  UNL1        0.0174
     26 C          67.3428   92.4029   15.8762 C.3     1  UNL1        0.0029
     27 C          66.5531   93.5332   15.2857 C.3     1  UNL1        0.0174
     28 C          66.5258   93.7331   13.7994 C.3     1  UNL1        0.0721
@<TRIPOS>BOND
     1     1     2   ar
     2     2     3   ar
     3     7     3    1
     4     7     8    1
     5     8     9    1
     6     9    10    1
     7    10    13    1
     8    13    14    1
     9    14    15    1
    10    15    16    1
    11    16    17    1
    12    17    18    1
    13    10    11    1
    14    11    12    1
    15     3     4   ar
    16     4     5   ar
    17     5     6   ar
    18     6    19    1
    19    19    20    1
    20    20    21    1
    21    21    22    1
    22    22    23    1
    23    23    24    1
    24    24    25    1
    25    25    26    1
    26    26    27    1
    27    27    28    1
    28     6     1   ar
    29    28    23    1
    30    12     7    1
    31    18    13    1
