@<TRIPOS>MOLECULE
*****
 31 34 0 0 0
SMALL
GASTEIGER

@<TRIPOS>ATOM
      1 C          64.7710   91.1718   15.0692 C.3     1  UNL1        0.1176
      2 N          63.9072   90.8787   13.8784 N.am    1  UNL1       -0.2468
      3 C          62.6601   90.0452   13.8775 C.2     1  UNL1        0.3141
      4 O          62.0579   89.3583   15.0673 O.2     1  UNL1       -0.2519
      5 N          62.1210   90.0191   12.4780 N.am    1  UNL1       -0.2077
      6 C          63.0349   90.8365   11.6139 C.2     1  UNL1        0.2616
      7 O          62.7224   90.9764   10.1535 O.2     1  UNL1       -0.2718
      8 C          64.1389   91.3678   12.4794 C.3     1  UNL1        0.2205
      9 C          64.3705   91.8568   11.0804 C.2     1  UNL1        0.2584
     10 O          63.6245   91.6656    9.7932 O.2     1  UNL1       -0.2719
     11 N          65.6175   92.6904   11.0813 N.am    1  UNL1       -0.2514
     12 C          66.1567   92.7165   12.4808 C.ar    1  UNL1        0.0527
     13 C          67.3617   93.3790   13.0800 C.ar    1  UNL1        0.0155
     14 C          67.6527   93.2241   14.5433 C.ar    1  UNL1        0.0127
     15 C          66.7389   92.4066   15.4074 C.ar    1  UNL1        0.0575
     16 CL         67.0300   92.2517   16.8707 Cl      1  UNL1       -0.0823
     17 C          65.5339   91.7442   14.8082 C.ar    1  UNL1        0.0108
     18 C          65.2428   91.8991   13.3449 C.ar    1  UNL1        0.0252
     19 C          60.8851   89.3016   12.0225 C.3     1  UNL1        0.1313
     20 C          60.9832   88.2249   10.9827 C.ar    1  UNL1        0.0265
     21 C          59.9549   88.1376    9.8941 C.ar    1  UNL1        0.0110
     22 C          60.0530   87.0609    8.8544 C.ar    1  UNL1        0.0576
     23 CL         59.0247   86.9735    7.7658 Cl      1  UNL1       -0.0823
     24 C          61.1795   86.0714    8.9032 C.ar    1  UNL1        0.0137
     25 C          62.2077   86.1588    9.9918 C.ar    1  UNL1        0.0302
     26 C          62.1096   87.2355   11.0316 C.ar    1  UNL1        0.1378
     27 F          63.1379   87.3228   12.1201 F       1  UNL1       -0.2044
     28 C          66.2198   93.3772    9.8915 C.3     1  UNL1        0.1398
     29 C          67.6741   93.1909    9.5745 C.2     1  UNL1        0.0708
     30 O          68.2339   91.8095    9.4056 O.co2   1  UNL1       -0.5474
     31 O          68.5686   94.3859    9.4264 O.co2   1  UNL1       -0.5474
@<TRIPOS>UNITY_ATOM_ATTR
30 1
charge -1
@<TRIPOS>BOND
     1     1     2    1
     2     2     3   am
     3     3     4    2
     4     3     5   am
     5     5    19    1
     6    19    20    1
     7    20    21   ar
     8    21    22   ar
     9    22    23    1
    10    22    24   ar
    11    24    25   ar
    12    25    26   ar
    13    26    27    1
    14     5     6   am
    15     6     7    2
    16     6     8    1
    17     8     9    1
    18     9    10    2
    19     9    11   am
    20    11    28    1
    21    28    29    1
    22    29    30   ar
    23    29    31   ar
    24    11    12    1
    25    12    13   ar
    26    13    14   ar
    27    14    15   ar
    28    15    16    1
    29    15    17   ar
    30    17    18   ar
    31     8     2    1
    32    18    12   ar
    33    26    20   ar
    34    18     8    1
@<TRIPOS>MOLECULE
*****
 31 34 0 0 0
SMALL
GASTEIGER

@<TRIPOS>ATOM
      1 C          62.1384   88.2277   10.3494 C.3     1  UNL1        0.1176
      2 N          62.7581   88.7232   11.6224 N.am    1  UNL1       -0.2468
      3 C          62.9296   90.1596   12.0188 C.2     1  UNL1        0.3141
      4 O          62.5116   91.3529   11.2117 O.2     1  UNL1       -0.2519
      5 N          63.5926   90.1934   13.3639 N.am    1  UNL1       -0.2077
      6 C          63.8309   88.7777   13.7989 C.2     1  UNL1        0.2616
      7 O          64.4884   88.5247   15.1232 O.2     1  UNL1       -0.2718
      8 C          63.3151   87.8690   12.7226 C.3     1  UNL1        0.2205
      9 C          63.8721   87.0150   13.8227 C.2     1  UNL1        0.2584
     10 O          64.5162   87.3342   15.1392 O.2     1  UNL1       -0.2719
     11 N          63.7005   85.5785   13.4264 N.am    1  UNL1       -0.2514
     12 C          63.0375   85.5448   12.0813 C.ar    1  UNL1        0.0527
     13 C          62.6199   84.4079   11.1963 C.ar    1  UNL1        0.0155
     14 C          61.9642   84.6867    9.8765 C.ar    1  UNL1        0.0127
     15 C          61.7259   86.1023    9.4415 C.ar    1  UNL1        0.0575
     16 CL         61.0701   86.3811    8.1215 Cl      1  UNL1       -0.0823
     17 C          62.1435   87.2392   10.3264 C.ar    1  UNL1        0.0108
     18 C          62.7993   86.9604   11.6463 C.ar    1  UNL1        0.0252
     19 C          63.9540   91.4262   14.1381 C.3     1  UNL1        0.1313
     20 C          65.3941   91.7459   14.4098 C.ar    1  UNL1        0.0265
     21 C          66.4242   91.5337   13.3403 C.ar    1  UNL1        0.0110
     22 C          67.8644   91.8534   13.6119 C.ar    1  UNL1        0.0576
     23 CL         68.8944   91.6411   12.5424 Cl      1  UNL1       -0.0823
     24 C          68.2744   92.3854   14.9532 C.ar    1  UNL1        0.0137
     25 C          67.2443   92.5976   16.0227 C.ar    1  UNL1        0.0302
     26 C          65.8042   92.2779   15.7511 C.ar    1  UNL1        0.1378
     27 F          64.7741   92.4902   16.8206 F       1  UNL1       -0.2044
     28 C          64.1186   84.3852   14.2334 C.3     1  UNL1        0.1398
     29 C          63.1168   83.6730   15.0932 C.2     1  UNL1        0.0708
     30 O          62.3468   84.4317   16.1331 O.co2   1  UNL1       -0.5474
     31 O          62.8850   82.2019   14.9131 O.co2   1  UNL1       -0.5474
@<TRIPOS>UNITY_ATOM_ATTR
30 1
charge -1
@<TRIPOS>BOND
     1     1     2    1
     2     2     3   am
     3     3     4    2
     4     3     5   am
     5     5    19    1
     6    19    20    1
     7    20    21   ar
     8    21    22   ar
     9    22    23    1
    10    22    24   ar
    11    24    25   ar
    12    25    26   ar
    13    26    27    1
    14     5     6   am
    15     6     7    2
    16     6     8    1
    17     8     9    1
    18     9    10    2
    19     9    11   am
    20    11    28    1
    21    28    29    1
    22    29    30   ar
    23    29    31   ar
    24    11    12    1
    25    12    13   ar
    26    13    14   ar
    27    14    15   ar
    28    15    16    1
    29    15    17   ar
    30    17    18   ar
    31     8     2    1
    32    18    12   ar
    33    26    20   ar
    34    18     8    1
@<TRIPOS>MOLECULE
*****
 31 34 0 0 0
SMALL
GASTEIGER

@<TRIPOS>ATOM
      1 C          63.7568   85.5108   13.9803 C.3     1  UNL1        0.1176
      2 N          63.5321   86.8784   13.4065 N.am    1  UNL1       -0.2468
      3 C          63.7850   88.1807   14.1064 C.2     1  UNL1        0.3141
      4 O          64.3070   88.3442   15.5031 O.2     1  UNL1       -0.2519
      5 N          63.4242   89.2910   13.1645 N.am    1  UNL1       -0.2077
      6 C          62.9483   88.6748   11.8824 C.2     1  UNL1        0.2616
      7 O          62.5210   89.5722   10.7589 O.2     1  UNL1       -0.2718
      8 C          63.0150   87.1837   12.0318 C.3     1  UNL1        0.2205
      9 C          62.4979   87.4890   10.6573 C.2     1  UNL1        0.2584
     10 O          62.2168   88.7713    9.9315 O.2     1  UNL1       -0.2719
     11 N          62.2450   86.1867    9.9574 N.am    1  UNL1       -0.2514
     12 C          62.6058   85.0765   10.8993 C.ar    1  UNL1        0.0527
     13 C          62.5624   83.5841   10.7552 C.ar    1  UNL1        0.0155
     14 C          62.9950   82.7079   11.8932 C.ar    1  UNL1        0.0127
     15 C          63.4709   83.3240   13.1753 C.ar    1  UNL1        0.0575
     16 CL         63.9035   82.4477   14.3133 Cl      1  UNL1       -0.0823
     17 C          63.5142   84.8164   13.3194 C.ar    1  UNL1        0.0108
     18 C          63.0816   85.6926   12.1814 C.ar    1  UNL1        0.0252
     19 C          63.5221   90.7595   13.4538 C.3     1  UNL1        0.1313
     20 C          64.8602   91.4373   13.4485 C.ar    1  UNL1        0.0265
     21 C          65.7249   91.3996   14.6735 C.ar    1  UNL1        0.0110
     22 C          67.0630   92.0774   14.6681 C.ar    1  UNL1        0.0576
     23 CL         67.9278   92.0397   15.8932 Cl      1  UNL1       -0.0823
     24 C          67.5364   92.7931   13.4377 C.ar    1  UNL1        0.0137
     25 C          66.6716   92.8309   12.2127 C.ar    1  UNL1        0.0302
     26 C          65.3335   92.1530   12.2180 C.ar    1  UNL1        0.1378
     27 F          64.4687   92.1908   10.9930 F       1  UNL1       -0.2044
     28 C          61.7229   86.0232    8.5607 C.3     1  UNL1        0.1398
     29 C          60.2743   86.2788    8.2667 C.2     1  UNL1        0.0708
     30 O          59.6082   85.5830    7.1169 O.co2   1  UNL1       -0.5474
     31 O          59.4918   87.2302    9.1227 O.co2   1  UNL1       -0.5474
@<TRIPOS>UNITY_ATOM_ATTR
30 1
charge -1
@<TRIPOS>BOND
     1     1     2    1
     2     2     3   am
     3     3     4    2
     4     3     5   am
     5     5    19    1
     6    19    20    1
     7    20    21   ar
     8    21    22   ar
     9    22    23    1
    10    22    24   ar
    11    24    25   ar
    12    25    26   ar
    13    26    27    1
    14     5     6   am
    15     6     7    2
    16     6     8    1
    17     8     9    1
    18     9    10    2
    19     9    11   am
    20    11    28    1
    21    28    29    1
    22    29    30   ar
    23    29    31   ar
    24    11    12    1
    25    12    13   ar
    26    13    14   ar
    27    14    15   ar
    28    15    16    1
    29    15    17   ar
    30    17    18   ar
    31     8     2    1
    32    18    12   ar
    33    26    20   ar
    34    18     8    1
@<TRIPOS>MOLECULE
*****
 31 34 0 0 0
SMALL
GASTEIGER

@<TRIPOS>ATOM
      1 C          61.7885   87.2113   10.3767 C.3     1  UNL1        0.1176
      2 N          62.5849   86.5998   11.4910 N.am    1  UNL1       -0.2468
      3 C          62.8430   85.1356   11.6898 C.2     1  UNL1        0.3141
      4 O          62.3501   84.0259   10.8091 O.2     1  UNL1       -0.2519
      5 N          63.6807   84.9759   12.9238 N.am    1  UNL1       -0.2077
      6 C          63.9402   86.3414   13.4877 C.2     1  UNL1        0.2616
      7 O          64.7627   86.4685   14.7358 O.2     1  UNL1       -0.2718
      8 C          63.2630   87.3451   12.6022 C.3     1  UNL1        0.2205
      9 C          63.9412   88.0903   13.7134 C.2     1  UNL1        0.2584
     10 O          64.7633   87.6497   14.8881 O.2     1  UNL1       -0.2719
     11 N          63.6830   89.5545   13.5146 N.am    1  UNL1       -0.2514
     12 C          62.8454   89.7142   12.2806 C.ar    1  UNL1        0.0527
     13 C          62.2855   90.9266   11.5975 C.ar    1  UNL1        0.0155
     14 C          61.4660   90.7734   10.3506 C.ar    1  UNL1        0.0127
     15 C          61.2064   89.4079    9.7867 C.ar    1  UNL1        0.0575
     16 CL         60.3869   89.2548    8.5396 Cl      1  UNL1       -0.0823
     17 C          61.7663   88.1955   10.4697 C.ar    1  UNL1        0.0108
     18 C          62.5858   88.3487   11.7167 C.ar    1  UNL1        0.0252
     19 C          64.1724   83.6786   13.4939 C.3     1  UNL1        0.1313
     20 C          63.2974   82.4609   13.4509 C.ar    1  UNL1        0.0265
     21 C          63.4973   81.4312   12.3787 C.ar    1  UNL1        0.0110
     22 C          62.6224   80.2136   12.3358 C.ar    1  UNL1        0.0576
     23 CL         62.8223   79.1838   11.2636 Cl      1  UNL1       -0.0823
     24 C          61.5474   80.0257   13.3651 C.ar    1  UNL1        0.0137
     25 C          61.3475   81.0555   14.4372 C.ar    1  UNL1        0.0302
     26 C          62.2225   82.2731   14.4802 C.ar    1  UNL1        0.1378
     27 F          62.0226   83.3029   15.5524 F       1  UNL1       -0.2044
     28 C          64.1760   90.6642   14.3953 C.3     1  UNL1        0.1398
     29 C          63.5889   90.8537   15.7626 C.2     1  UNL1        0.0708
     30 O          63.8624   92.1144   16.5281 O.co2   1  UNL1       -0.5474
     31 O          62.7283   89.7826   16.3644 O.co2   1  UNL1       -0.5474
@<TRIPOS>UNITY_ATOM_ATTR
30 1
charge -1
@<TRIPOS>BOND
     1     1     2    1
     2     2     3   am
     3     3     4    2
     4     3     5   am
     5     5    19    1
     6    19    20    1
     7    20    21   ar
     8    21    22   ar
     9    22    23    1
    10    22    24   ar
    11    24    25   ar
    12    25    26   ar
    13    26    27    1
    14     5     6   am
    15     6     7    2
    16     6     8    1
    17     8     9    1
    18     9    10    2
    19     9    11   am
    20    11    28    1
    21    28    29    1
    22    29    30   ar
    23    29    31   ar
    24    11    12    1
    25    12    13   ar
    26    13    14   ar
    27    14    15   ar
    28    15    16    1
    29    15    17   ar
    30    17    18   ar
    31     8     2    1
    32    18    12   ar
    33    26    20   ar
    34    18     8    1
@<TRIPOS>MOLECULE
*****
 31 34 0 0 0
SMALL
GASTEIGER

@<TRIPOS>ATOM
      1 C          61.7409   87.1937   10.4748 C.3     1  UNL1        0.1176
      2 N          62.4895   86.6815   11.6694 N.am    1  UNL1       -0.2468
      3 C          62.6388   85.2426   12.0660 C.2     1  UNL1        0.3141
      4 O          62.0657   84.0633   11.3375 O.2     1  UNL1       -0.2519
      5 N          63.4618   85.1900   13.3189 N.am    1  UNL1       -0.2077
      6 C          63.8212   86.5965   13.6968 C.2     1  UNL1        0.2616
      7 O          64.6502   86.8303   14.9249 O.2     1  UNL1       -0.2718
      8 C          63.2203   87.5183   12.6774 C.3     1  UNL1        0.2205
      9 C          63.9511   88.3550   13.6853 C.2     1  UNL1        0.2584
     10 O          64.7379   88.0180   14.9171 O.2     1  UNL1       -0.2719
     11 N          63.8018   89.7940   13.2887 N.am    1  UNL1       -0.2514
     12 C          62.9788   89.8465   12.0358 C.ar    1  UNL1        0.0527
     13 C          62.5102   90.9933   11.1901 C.ar    1  UNL1        0.0155
     14 C          61.6822   90.7337    9.9666 C.ar    1  UNL1        0.0127
     15 C          61.3228   89.3273    9.5888 C.ar    1  UNL1        0.0575
     16 CL         60.4948   89.0677    8.3652 Cl      1  UNL1       -0.0823
     17 C          61.7914   88.1805   10.4344 C.ar    1  UNL1        0.0108
     18 C          62.6194   88.4401   11.6579 C.ar    1  UNL1        0.0252
     19 C          63.8563   83.9490   14.0633 C.3     1  UNL1        0.1313
     20 C          63.2508   82.6277   13.6924 C.ar    1  UNL1        0.0265
     21 C          61.9214   82.2263   14.2594 C.ar    1  UNL1        0.0110
     22 C          61.3160   80.9049   13.8885 C.ar    1  UNL1        0.0576
     23 CL         59.9866   80.5035   14.4555 Cl      1  UNL1       -0.0823
     24 C          62.0400   79.9850   12.9506 C.ar    1  UNL1        0.0137
     25 C          63.3694   80.3864   12.3836 C.ar    1  UNL1        0.0302
     26 C          63.9749   81.7078   12.7545 C.ar    1  UNL1        0.1378
     27 F          65.3043   82.1092   12.1875 F       1  UNL1       -0.2044
     28 C          64.3749   90.9733   14.0172 C.3     1  UNL1        0.1398
     29 C          65.5315   91.7274   13.4309 C.2     1  UNL1        0.0708
     30 O          65.2992   92.7197   12.3302 O.co2   1  UNL1       -0.5474
     31 O          66.9203   91.4892   13.9452 O.co2   1  UNL1       -0.5474
@<TRIPOS>UNITY_ATOM_ATTR
30 1
charge -1
@<TRIPOS>BOND
     1     1     2    1
     2     2     3   am
     3     3     4    2
     4     3     5   am
     5     5    19    1
     6    19    20    1
     7    20    21   ar
     8    21    22   ar
     9    22    23    1
    10    22    24   ar
    11    24    25   ar
    12    25    26   ar
    13    26    27    1
    14     5     6   am
    15     6     7    2
    16     6     8    1
    17     8     9    1
    18     9    10    2
    19     9    11   am
    20    11    28    1
    21    28    29    1
    22    29    30   ar
    23    29    31   ar
    24    11    12    1
    25    12    13   ar
    26    13    14   ar
    27    14    15   ar
    28    15    16    1
    29    15    17   ar
    30    17    18   ar
    31     8     2    1
    32    18    12   ar
    33    26    20   ar
    34    18     8    1
@<TRIPOS>MOLECULE
*****
 31 34 0 0 0
SMALL
GASTEIGER

@<TRIPOS>ATOM
      1 C          63.8136   85.7664   13.7003 C.3     1  UNL1        0.1176
      2 N          63.4822   87.1048   13.1096 N.am    1  UNL1       -0.2468
      3 C          63.8213   88.4394   13.7045 C.2     1  UNL1        0.3141
      4 O          64.5513   88.6699   14.9944 O.2     1  UNL1       -0.2519
      5 N          63.3023   89.5031   12.7829 N.am    1  UNL1       -0.2077
      6 C          62.6424   88.8258   11.6185 C.2     1  UNL1        0.2616
      7 O          62.0327   89.6681   10.5373 O.2     1  UNL1       -0.2718
      8 C          62.7536   87.3436   11.8203 C.3     1  UNL1        0.2205
      9 C          62.0250   87.5824   10.5311 C.2     1  UNL1        0.2584
     10 O          61.6158   88.8283    9.8029 O.2     1  UNL1       -0.2719
     11 N          61.6859   86.2478    9.9363 N.am    1  UNL1       -0.2514
     12 C          62.2050   85.1842   10.8578 C.ar    1  UNL1        0.0527
     13 C          62.1620   83.6865   10.7871 C.ar    1  UNL1        0.0155
     14 C          62.7788   82.8660   11.8809 C.ar    1  UNL1        0.0127
     15 C          63.4387   83.5433   13.0453 C.ar    1  UNL1        0.0575
     16 CL         64.0556   82.7227   14.1391 Cl      1  UNL1       -0.0823
     17 C          63.4817   85.0410   13.1160 C.ar    1  UNL1        0.0108
     18 C          62.8648   85.8614   12.0223 C.ar    1  UNL1        0.0252
     19 C          63.4221   90.9839   12.9894 C.3     1  UNL1        0.1313
     20 C          64.7284   91.6740   12.7300 C.ar    1  UNL1        0.0265
     21 C          65.0523   92.1737   11.3533 C.ar    1  UNL1        0.0110
     22 C          66.3586   92.8638   11.0939 C.ar    1  UNL1        0.0576
     23 CL         66.6824   93.3634    9.7172 Cl      1  UNL1       -0.0823
     24 C          67.3410   93.0543   12.2114 C.ar    1  UNL1        0.0137
     25 C          67.0172   92.5547   13.5881 C.ar    1  UNL1        0.0302
     26 C          65.7109   91.8645   13.8475 C.ar    1  UNL1        0.1378
     27 F          65.3870   91.3649   15.2242 F       1  UNL1       -0.2044
     28 C          60.9560   86.0173    8.6463 C.3     1  UNL1        0.1398
     29 C          61.6184   85.2580    7.5350 C.2     1  UNL1        0.0708
     30 O          60.7989   84.7294    6.3953 O.co2   1  UNL1       -0.5474
     31 O          63.1003   85.0276    7.5634 O.co2   1  UNL1       -0.5474
@<TRIPOS>UNITY_ATOM_ATTR
30 1
charge -1
@<TRIPOS>BOND
     1     1     2    1
     2     2     3   am
     3     3     4    2
     4     3     5   am
     5     5    19    1
     6    19    20    1
     7    20    21   ar
     8    21    22   ar
     9    22    23    1
    10    22    24   ar
    11    24    25   ar
    12    25    26   ar
    13    26    27    1
    14     5     6   am
    15     6     7    2
    16     6     8    1
    17     8     9    1
    18     9    10    2
    19     9    11   am
    20    11    28    1
    21    28    29    1
    22    29    30   ar
    23    29    31   ar
    24    11    12    1
    25    12    13   ar
    26    13    14   ar
    27    14    15   ar
    28    15    16    1
    29    15    17   ar
    30    17    18   ar
    31     8     2    1
    32    18    12   ar
    33    26    20   ar
    34    18     8    1
@<TRIPOS>MOLECULE
*****
 31 34 0 0 0
SMALL
GASTEIGER

@<TRIPOS>ATOM
      1 C          64.0643   92.2246   10.2410 C.3     1  UNL1        0.1176
      2 N          63.6415   90.9983   10.9943 N.am    1  UNL1       -0.2468
      3 C          62.6851   89.9504   10.5074 C.2     1  UNL1        0.3141
      4 O          61.9836   89.9447    9.1815 O.2     1  UNL1       -0.2519
      5 N          62.5533   88.9091   11.5790 N.am    1  UNL1       -0.2077
      6 C          63.4282   89.3135   12.7283 C.2     1  UNL1        0.2616
      7 O          63.4826   88.4369   13.9444 O.2     1  UNL1       -0.2718
      8 C          64.1008   90.6047   12.3670 C.3     1  UNL1        0.2205
      9 C          64.5601   90.2110   13.7396 C.2     1  UNL1        0.2584
     10 O          64.2470   89.0432   14.6274 O.2     1  UNL1       -0.2719
     11 N          65.5165   91.2590   14.2266 N.am    1  UNL1       -0.2514
     12 C          65.6483   92.3003   13.1550 C.ar    1  UNL1        0.0527
     13 C          66.4519   93.5644   13.0773 C.ar    1  UNL1        0.0155
     14 C          66.3806   94.4241   11.8503 C.ar    1  UNL1        0.0127
     15 C          65.5057   94.0197   10.7009 C.ar    1  UNL1        0.0575
     16 CL         65.4344   94.8796    9.4738 Cl      1  UNL1       -0.0823
     17 C          64.7020   92.7556   10.7787 C.ar    1  UNL1        0.0108
     18 C          64.7733   91.8959   12.0057 C.ar    1  UNL1        0.0252
     19 C          61.6970   87.6794   11.5129 C.3     1  UNL1        0.1313
     20 C          62.3077   86.3589   11.1477 C.ar    1  UNL1        0.0265
     21 C          62.7495   85.4133   12.2251 C.ar    1  UNL1        0.0110
     22 C          63.3603   84.0929   11.8599 C.ar    1  UNL1        0.0576
     23 CL         63.8021   83.1473   12.9372 Cl      1  UNL1       -0.0823
     24 C          63.5293   83.7180   10.4172 C.ar    1  UNL1        0.0137
     25 C          63.0875   84.6636    9.3399 C.ar    1  UNL1        0.0302
     26 C          62.4767   85.9841    9.7051 C.ar    1  UNL1        0.1378
     27 F          62.0349   86.9296    8.6278 F       1  UNL1       -0.2044
     28 C          66.2180   91.2646   15.5525 C.3     1  UNL1        0.1398
     29 C          66.1460   92.4763   16.4339 C.2     1  UNL1        0.0708
     30 O          67.2833   93.4540   16.4591 O.co2   1  UNL1       -0.5474
     31 O          64.9368   92.7102   17.2901 O.co2   1  UNL1       -0.5474
@<TRIPOS>UNITY_ATOM_ATTR
30 1
charge -1
@<TRIPOS>BOND
     1     1     2    1
     2     2     3   am
     3     3     4    2
     4     3     5   am
     5     5    19    1
     6    19    20    1
     7    20    21   ar
     8    21    22   ar
     9    22    23    1
    10    22    24   ar
    11    24    25   ar
    12    25    26   ar
    13    26    27    1
    14     5     6   am
    15     6     7    2
    16     6     8    1
    17     8     9    1
    18     9    10    2
    19     9    11   am
    20    11    28    1
    21    28    29    1
    22    29    30   ar
    23    29    31   ar
    24    11    12    1
    25    12    13   ar
    26    13    14   ar
    27    14    15   ar
    28    15    16    1
    29    15    17   ar
    30    17    18   ar
    31     8     2    1
    32    18    12   ar
    33    26    20   ar
    34    18     8    1
@<TRIPOS>MOLECULE
*****
 31 34 0 0 0
SMALL
GASTEIGER

@<TRIPOS>ATOM
      1 C          63.9023   88.7893   13.4973 C.3     1  UNL1        0.1176
      2 N          63.6581   87.3143   13.3756 N.am    1  UNL1       -0.2468
      3 C          64.0237   86.2733   14.3918 C.2     1  UNL1        0.3141
      4 O          64.6978   86.5245   15.7081 O.2     1  UNL1       -0.2519
      5 N          63.5970   84.9370   13.8607 N.am    1  UNL1       -0.2077
      6 C          62.9676   85.1521   12.5162 C.2     1  UNL1        0.2616
      7 O          62.4489   83.9662   11.7580 O.2     1  UNL1       -0.2718
      8 C          63.0053   86.6213   12.2164 C.3     1  UNL1        0.2205
      9 C          62.3526   85.9284   11.0572 C.2     1  UNL1        0.2584
     10 O          62.0335   84.4906   10.7726 O.2     1  UNL1       -0.2719
     11 N          61.9870   86.9694   10.0410 N.am    1  UNL1       -0.2514
     12 C          62.4137   88.3057   10.5722 C.ar    1  UNL1        0.0527
     13 C          62.3105   89.6906   10.0053 C.ar    1  UNL1        0.0155
     14 C          62.8367   90.8604   10.7829 C.ar    1  UNL1        0.0127
     15 C          63.4661   90.6453   12.1273 C.ar    1  UNL1        0.0575
     16 CL         63.9923   91.8152   12.9049 Cl      1  UNL1       -0.0823
     17 C          63.5693   89.2604   12.6942 C.ar    1  UNL1        0.0108
     18 C          63.0431   88.0906   11.9166 C.ar    1  UNL1        0.0252
     19 C          63.7694   83.6173   14.5525 C.3     1  UNL1        0.1313
     20 C          63.0969   82.3918   14.0083 C.ar    1  UNL1        0.0265
     21 C          61.7232   82.0179   14.4807 C.ar    1  UNL1        0.0110
     22 C          61.0507   80.7924   13.9366 C.ar    1  UNL1        0.0576
     23 CL         59.6771   80.4184   14.4090 Cl      1  UNL1       -0.0823
     24 C          61.7520   79.9409   12.9200 C.ar    1  UNL1        0.0137
     25 C          63.1257   80.3149   12.4477 C.ar    1  UNL1        0.0302
     26 C          63.7982   81.5403   12.9918 C.ar    1  UNL1        0.1378
     27 F          65.1718   81.9143   12.5194 F       1  UNL1       -0.2044
     28 C          61.3129   86.7182    8.7248 C.3     1  UNL1        0.1398
     29 C          59.8524   87.0187    8.5606 C.2     1  UNL1        0.0708
     30 O          59.1580   87.9210    9.5371 O.co2   1  UNL1       -0.5474
     31 O          59.0865   86.4169    7.4199 O.co2   1  UNL1       -0.5474
@<TRIPOS>UNITY_ATOM_ATTR
30 1
charge -1
@<TRIPOS>BOND
     1     1     2    1
     2     2     3   am
     3     3     4    2
     4     3     5   am
     5     5    19    1
     6    19    20    1
     7    20    21   ar
     8    21    22   ar
     9    22    23    1
    10    22    24   ar
    11    24    25   ar
    12    25    26   ar
    13    26    27    1
    14     5     6   am
    15     6     7    2
    16     6     8    1
    17     8     9    1
    18     9    10    2
    19     9    11   am
    20    11    28    1
    21    28    29    1
    22    29    30   ar
    23    29    31   ar
    24    11    12    1
    25    12    13   ar
    26    13    14   ar
    27    14    15   ar
    28    15    16    1
    29    15    17   ar
    30    17    18   ar
    31     8     2    1
    32    18    12   ar
    33    26    20   ar
    34    18     8    1
@<TRIPOS>MOLECULE
*****
 31 34 0 0 0
SMALL
GASTEIGER

@<TRIPOS>ATOM
      1 C          61.4263   89.4412   10.1094 C.3     1  UNL1        0.1176
      2 N          62.2275   89.1765   11.3496 N.am    1  UNL1       -0.2468
      3 C          62.7643   90.2140   12.2906 C.2     1  UNL1        0.3141
      4 O          62.5944   91.6983   12.1565 O.2     1  UNL1       -0.2519
      5 N          63.5011   89.5066   13.3891 N.am    1  UNL1       -0.2077
      6 C          63.4195   88.0319   13.1271 C.2     1  UNL1        0.2616
      7 O          64.0807   87.0855   14.0849 O.2     1  UNL1       -0.2718
      8 C          62.6324   87.8279   11.8666 C.3     1  UNL1        0.2205
      9 C          63.0373   86.4793   12.3837 C.2     1  UNL1        0.2584
     10 O          63.8225   86.0369   13.5827 O.2     1  UNL1       -0.2719
     11 N          62.5004   85.4418   11.4427 N.am    1  UNL1       -0.2514
     12 C          61.7637   86.1492   10.3441 C.ar    1  UNL1        0.0527
     13 C          61.0291   85.6410    9.1391 C.ar    1  UNL1        0.0155
     14 C          60.3761   86.6076    8.1961 C.ar    1  UNL1        0.0127
     15 C          60.4577   88.0823    8.4581 C.ar    1  UNL1        0.0575
     16 CL         59.8046   89.0488    7.5150 Cl      1  UNL1       -0.0823
     17 C          61.1923   88.5904    9.6631 C.ar    1  UNL1        0.0108
     18 C          61.8452   87.6239   10.6061 C.ar    1  UNL1        0.0252
     19 C          64.1971   90.1592   14.5465 C.3     1  UNL1        0.1313
     20 C          65.2237   91.2248   14.3001 C.ar    1  UNL1        0.0265
     21 C          65.8541   91.3602   12.9458 C.ar    1  UNL1        0.0110
     22 C          66.8806   92.4258   12.6994 C.ar    1  UNL1        0.0576
     23 CL         67.5110   92.5612   11.3451 Cl      1  UNL1       -0.0823
     24 C          67.2769   93.3560   13.8076 C.ar    1  UNL1        0.0137
     25 C          66.6466   93.2206   15.1619 C.ar    1  UNL1        0.0302
     26 C          65.6200   92.1550   15.4083 C.ar    1  UNL1        0.1378
     27 F          64.9896   92.0196   16.7626 F       1  UNL1       -0.2044
     28 C          62.6704   83.9575   11.5768 C.3     1  UNL1        0.1398
     29 C          63.7615   83.2564   10.8230 C.2     1  UNL1        0.0708
     30 O          64.6370   82.2604   11.5240 O.co2   1  UNL1       -0.5474
     31 O          63.9770   83.5514    9.3681 O.co2   1  UNL1       -0.5474
@<TRIPOS>UNITY_ATOM_ATTR
30 1
charge -1
@<TRIPOS>BOND
     1     1     2    1
     2     2     3   am
     3     3     4    2
     4     3     5   am
     5     5    19    1
     6    19    20    1
     7    20    21   ar
     8    21    22   ar
     9    22    23    1
    10    22    24   ar
    11    24    25   ar
    12    25    26   ar
    13    26    27    1
    14     5     6   am
    15     6     7    2
    16     6     8    1
    17     8     9    1
    18     9    10    2
    19     9    11   am
    20    11    28    1
    21    28    29    1
    22    29    30   ar
    23    29    31   ar
    24    11    12    1
    25    12    13   ar
    26    13    14   ar
    27    14    15   ar
    28    15    16    1
    29    15    17   ar
    30    17    18   ar
    31     8     2    1
    32    18    12   ar
    33    26    20   ar
    34    18     8    1
