@<TRIPOS>MOLECULE
*****
 29 32 0 0 0
SMALL
GASTEIGER

@<TRIPOS>ATOM
      1 C          64.0510   85.5353   15.7092 C.ar    1  UNL1        0.2172
      2 N          63.2085   86.1384   16.7939 N.ar    1  UNL1       -0.2126
      3 C          62.9972   87.6227   16.8416 C.ar    1  UNL1        0.0994
      4 C          63.6284   88.5038   15.8047 C.ar    1  UNL1        0.0207
      5 C          64.4709   87.9008   14.7201 C.ar    1  UNL1        0.0994
      6 N          64.6822   86.4165   14.6724 N.ar    1  UNL1       -0.2126
      7 N          64.2623   84.0511   15.6615 N.pl3   1  UNL1       -0.2990
      8 H          64.9457   83.6325   16.2334 H       1  UNL1        0.1500
      9 C          63.4325   83.2045   14.7423 C.3     1  UNL1        0.1180
     10 C          63.5752   83.9021   10.2991 C.ar    1  UNL1        0.2250
     11 C          62.6178   84.6822   11.1504 C.ar    1  UNL1        0.0574
     12 C          62.5702   84.4496   12.6315 C.ar    1  UNL1        0.0037
     13 C          63.4801   83.4370   13.2612 C.ar    1  UNL1        0.0168
     14 C          64.4376   82.6568   12.4099 C.ar    1  UNL1        0.0994
     15 N          64.4851   82.8894   10.9288 N.ar    1  UNL1       -0.2104
     16 C          62.8967   85.3022    8.2183 C.3     1  UNL1        0.2542
     17 O          63.6228   84.1345    8.8180 O.3     1  UNL1       -0.4561
     18 C          63.4170   89.9882   15.8525 C.3     1  UNL1        0.0575
     19 C          64.2282   90.8900   14.9701 C.ar    1  UNL1        0.0044
     20 C          65.3556   91.7752   15.4123 C.ar    1  UNL1        0.0966
     21 N          65.8785   92.4972   14.2060 N.ar    1  UNL1       -0.2273
     22 C          65.0744   92.0583   13.0182 C.ar    1  UNL1        0.1403
     23 N          65.1391   92.4348   11.5677 N.ar    1  UNL1       -0.3367
     24 C          64.1839   91.8180   10.5895 C.ar    1  UNL1        0.0850
     25 C          63.1639   90.8247   11.0617 C.ar    1  UNL1        0.0747
     26 CL         62.2087   90.2078   10.0834 Cl      1  UNL1       -0.0807
     27 C          63.0992   90.4482   12.5122 C.ar    1  UNL1        0.0156
     28 C          64.0544   91.0650   13.4905 C.ar    1  UNL1        0.0327
     29 H          65.8085   93.0868   11.2578 H       1  UNL1        0.1674
@<TRIPOS>BOND
     1    16    17    1
     2    17    10    1
     3    10    11   ar
     4    11    12   ar
     5    12    13   ar
     6    13     9    1
     7     9     7    1
     8     7     1    1
     9     1     2   ar
    10     2     3   ar
    11     3     4   ar
    12     4    18    1
    13    18    19    1
    14    19    20   ar
    15    20    21   ar
    16    21    22   ar
    17    22    23   ar
    18    23    24   ar
    19    24    25   ar
    20    25    26    1
    21    25    27   ar
    22    27    28   ar
    23     4     5   ar
    24     5     6   ar
    25    13    14   ar
    26    14    15   ar
    27    15    10   ar
    28     6     1   ar
    29    28    19   ar
    30    28    22    1
    31     7     8    1
    32    23    29    1
@<TRIPOS>MOLECULE
*****
 29 32 0 0 0
SMALL
GASTEIGER

@<TRIPOS>ATOM
      1 C          63.3408   83.8508   13.1108 C.ar    1  UNL1        0.2172
      2 N          64.0856   83.3196   11.9220 N.ar    1  UNL1       -0.2126
      3 C          63.7768   83.8402   10.5496 C.ar    1  UNL1        0.0994
      4 C          62.7231   84.8919   10.3659 C.ar    1  UNL1        0.0207
      5 C          61.9783   85.4231   11.5547 C.ar    1  UNL1        0.0994
      6 N          62.2872   84.9025   12.9271 N.ar    1  UNL1       -0.2126
      7 N          63.6497   83.3303   14.4833 N.pl3   1  UNL1       -0.2990
      8 H          63.3284   82.4406   14.7561 H       1  UNL1        0.1500
      9 C          64.4480   84.1653   15.4401 C.3     1  UNL1        0.1180
     10 C          63.4049   88.4991   16.0558 C.ar    1  UNL1        0.2250
     11 C          64.2983   88.0968   14.9201 C.ar    1  UNL1        0.0574
     12 C          64.6460   86.6522   14.7149 C.ar    1  UNL1        0.0037
     13 C          64.1003   85.6099   15.6454 C.ar    1  UNL1        0.0168
     14 C          63.2068   86.0122   16.7811 C.ar    1  UNL1        0.0994
     15 N          62.8591   87.4569   16.9863 N.ar    1  UNL1       -0.2104
     16 C          63.9699   91.0158   15.7436 C.3     1  UNL1        0.2542
     17 O          63.0571   89.9437   16.2610 O.3     1  UNL1       -0.4561
     18 C          62.4143   85.4124    8.9934 C.3     1  UNL1        0.0575
     19 C          61.4203   86.5221    8.8182 C.ar    1  UNL1        0.0044
     20 C          60.1876   86.4751    7.9648 C.ar    1  UNL1        0.0966
     21 N          59.4901   87.7976    8.0849 N.ar    1  UNL1       -0.2273
     22 C          60.2916   88.6619    9.0125 C.ar    1  UNL1        0.1403
     23 N          60.0893   90.0649    9.5030 N.ar    1  UNL1       -0.3367
     24 C          61.0800   90.6796   10.4467 C.ar    1  UNL1        0.0850
     25 C          62.2730   89.8913   10.8999 C.ar    1  UNL1        0.0747
     26 CL         63.2637   90.5061   11.8437 Cl      1  UNL1       -0.0807
     27 C          62.4753   88.4884   10.4094 C.ar    1  UNL1        0.0156
     28 C          61.4846   87.8736    9.4657 C.ar    1  UNL1        0.0327
     29 H          59.3063   90.5823    9.2056 H       1  UNL1        0.1674
@<TRIPOS>BOND
     1    16    17    1
     2    17    10    1
     3    10    11   ar
     4    11    12   ar
     5    12    13   ar
     6    13     9    1
     7     9     7    1
     8     7     1    1
     9     1     2   ar
    10     2     3   ar
    11     3     4   ar
    12     4    18    1
    13    18    19    1
    14    19    20   ar
    15    20    21   ar
    16    21    22   ar
    17    22    23   ar
    18    23    24   ar
    19    24    25   ar
    20    25    26    1
    21    25    27   ar
    22    27    28   ar
    23     4     5   ar
    24     5     6   ar
    25    13    14   ar
    26    14    15   ar
    27    15    10   ar
    28     6     1   ar
    29    28    19   ar
    30    28    22    1
    31     7     8    1
    32    23    29    1
@<TRIPOS>MOLECULE
*****
 29 32 0 0 0
SMALL
GASTEIGER

@<TRIPOS>ATOM
      1 C          63.7857   85.9981   15.8142 C.ar    1  UNL1        0.2172
      2 N          64.3911   86.7645   14.6757 N.ar    1  UNL1       -0.2126
      3 C          64.3315   88.2632   14.6648 C.ar    1  UNL1        0.0994
      4 C          63.6664   88.9956   15.7923 C.ar    1  UNL1        0.0207
      5 C          63.0609   88.2292   16.9308 C.ar    1  UNL1        0.0994
      6 N          63.1206   86.7305   16.9417 N.ar    1  UNL1       -0.2126
      7 N          63.8453   84.4994   15.8251 N.pl3   1  UNL1       -0.2990
      8 H          64.6430   84.0410   16.1754 H       1  UNL1        0.1500
      9 C          62.6894   83.6989   15.3023 C.3     1  UNL1        0.1180
     10 C          63.0448   81.5363   11.3721 C.ar    1  UNL1        0.2250
     11 C          62.6386   80.7870   12.6064 C.ar    1  UNL1        0.0574
     12 C          62.5201   81.5079   13.9164 C.ar    1  UNL1        0.0037
     13 C          62.8079   82.9781   13.9922 C.ar    1  UNL1        0.0168
     14 C          63.2141   83.7274   12.7579 C.ar    1  UNL1        0.0994
     15 N          63.3325   83.0065   11.4478 N.ar    1  UNL1       -0.2104
     16 C          62.8574   79.3492    9.9824 C.3     1  UNL1        0.2542
     17 O          63.1632   80.8155   10.0620 O.3     1  UNL1       -0.4561
     18 C          63.6068   90.4945   15.7814 C.3     1  UNL1        0.0575
     19 C          64.6111   91.2793   14.9906 C.ar    1  UNL1        0.0044
     20 C          65.8242   91.9678   15.5421 C.ar    1  UNL1        0.0966
     21 N          66.5415   92.6274   14.4017 N.ar    1  UNL1       -0.2273
     22 C          65.7717   92.3464   13.1453 C.ar    1  UNL1        0.1403
     23 N          66.0029   92.7416   11.7170 N.ar    1  UNL1       -0.3367
     24 C          65.0411   92.3037   10.6525 C.ar    1  UNL1        0.0850
     25 C          63.8481   91.4705   11.0165 C.ar    1  UNL1        0.0747
     26 CL         62.8863   91.0325    9.9519 Cl      1  UNL1       -0.0807
     27 C          63.6168   91.0753   12.4448 C.ar    1  UNL1        0.0156
     28 C          64.5786   91.5132   13.5093 C.ar    1  UNL1        0.0327
     29 H          66.7860   93.2885   11.4781 H       1  UNL1        0.1674
@<TRIPOS>BOND
     1    16    17    1
     2    17    10    1
     3    10    11   ar
     4    11    12   ar
     5    12    13   ar
     6    13     9    1
     7     9     7    1
     8     7     1    1
     9     1     2   ar
    10     2     3   ar
    11     3     4   ar
    12     4    18    1
    13    18    19    1
    14    19    20   ar
    15    20    21   ar
    16    21    22   ar
    17    22    23   ar
    18    23    24   ar
    19    24    25   ar
    20    25    26    1
    21    25    27   ar
    22    27    28   ar
    23     4     5   ar
    24     5     6   ar
    25    13    14   ar
    26    14    15   ar
    27    15    10   ar
    28     6     1   ar
    29    28    19   ar
    30    28    22    1
    31     7     8    1
    32    23    29    1
@<TRIPOS>MOLECULE
*****
 29 32 0 0 0
SMALL
GASTEIGER

@<TRIPOS>ATOM
      1 C          63.1841   86.9829   16.2708 C.ar    1  UNL1        0.2172
      2 N          62.2204   85.8771   16.5845 N.ar    1  UNL1       -0.2126
      3 C          62.2645   84.5990   15.8006 C.ar    1  UNL1        0.0994
      4 C          63.2723   84.4267   14.7030 C.ar    1  UNL1        0.0207
      5 C          64.2360   85.5325   14.3893 C.ar    1  UNL1        0.0994
      6 N          64.1919   86.8106   15.1732 N.ar    1  UNL1       -0.2126
      7 N          63.1400   88.2610   17.0546 N.pl3   1  UNL1       -0.2990
      8 H          63.3389   88.2542   18.0188 H       1  UNL1        0.1500
      9 C          62.7930   89.5495   16.3695 C.3     1  UNL1        0.1180
     10 C          66.0495   92.4340   15.2187 C.ar    1  UNL1        0.2250
     11 C          65.7937   91.2177   14.3789 C.ar    1  UNL1        0.0574
     12 C          64.7082   90.2562   14.7626 C.ar    1  UNL1        0.0037
     13 C          63.8784   90.5111   15.9859 C.ar    1  UNL1        0.0168
     14 C          64.1342   91.7274   16.8257 C.ar    1  UNL1        0.0994
     15 N          65.2197   92.6889   16.4420 N.ar    1  UNL1       -0.2104
     16 C          68.4442   93.3795   15.5670 C.3     1  UNL1        0.2542
     17 O          67.1349   93.3956   14.8351 O.3     1  UNL1       -0.4561
     18 C          63.3164   83.1485   13.9191 C.3     1  UNL1        0.0575
     19 C          63.6399   83.1776   12.4547 C.ar    1  UNL1        0.0044
     20 C          64.5869   82.2579   11.7425 C.ar    1  UNL1        0.0966
     21 N          64.6054   82.6434   10.2930 N.ar    1  UNL1       -0.2273
     22 C          63.6698   83.8014   10.1094 C.ar    1  UNL1        0.1403
     23 N          63.2842   84.5978    8.8982 N.ar    1  UNL1       -0.3367
     24 C          62.3017   85.7244    9.0231 C.ar    1  UNL1        0.0850
     25 C          61.7050   86.0546   10.3591 C.ar    1  UNL1        0.0747
     26 CL         60.7225   87.1812   10.4839 Cl      1  UNL1       -0.0807
     27 C          62.0906   85.2581   11.5702 C.ar    1  UNL1        0.0156
     28 C          63.0730   84.1315   11.4454 C.ar    1  UNL1        0.0327
     29 H          63.6758   84.3812    8.0214 H       1  UNL1        0.1674
@<TRIPOS>BOND
     1    16    17    1
     2    17    10    1
     3    10    11   ar
     4    11    12   ar
     5    12    13   ar
     6    13     9    1
     7     9     7    1
     8     7     1    1
     9     1     2   ar
    10     2     3   ar
    11     3     4   ar
    12     4    18    1
    13    18    19    1
    14    19    20   ar
    15    20    21   ar
    16    21    22   ar
    17    22    23   ar
    18    23    24   ar
    19    24    25   ar
    20    25    26    1
    21    25    27   ar
    22    27    28   ar
    23     4     5   ar
    24     5     6   ar
    25    13    14   ar
    26    14    15   ar
    27    15    10   ar
    28     6     1   ar
    29    28    19   ar
    30    28    22    1
    31     7     8    1
    32    23    29    1
@<TRIPOS>MOLECULE
*****
 29 32 0 0 0
SMALL
GASTEIGER

@<TRIPOS>ATOM
      1 C          63.7656   90.7089   12.4384 C.ar    1  UNL1        0.2172
      2 N          63.8767   89.3486   13.0607 N.ar    1  UNL1       -0.2126
      3 C          63.1238   88.1917   12.4738 C.ar    1  UNL1        0.0994
      4 C          62.2598   88.3949   11.2646 C.ar    1  UNL1        0.0207
      5 C          62.1486   89.7552   10.6423 C.ar    1  UNL1        0.0994
      6 N          62.9015   90.9122   11.2292 N.ar    1  UNL1       -0.2126
      7 N          64.5185   91.8659   13.0253 N.pl3   1  UNL1       -0.2990
      8 H          64.0478   92.5284   13.5810 H       1  UNL1        0.1500
      9 C          65.9884   92.0136   12.7654 C.3     1  UNL1        0.1180
     10 C          67.4377   94.8519    9.5884 C.ar    1  UNL1        0.2250
     11 C          67.6242   93.3737    9.4152 C.ar    1  UNL1        0.0574
     12 C          67.1411   92.4276   10.4742 C.ar    1  UNL1        0.0037
     13 C          66.4715   92.9598   11.7065 C.ar    1  UNL1        0.0168
     14 C          66.2850   94.4380   11.8797 C.ar    1  UNL1        0.0994
     15 N          66.7681   95.3841   10.8207 N.ar    1  UNL1       -0.2104
     16 C          67.0011   96.8535    7.9906 C.3     1  UNL1        0.2542
     17 O          67.9208   95.7980    8.5295 O.3     1  UNL1       -0.4561
     18 C          61.5068   87.2378   10.6777 C.3     1  UNL1        0.0575
     19 C          62.2538   86.0700   10.1048 C.ar    1  UNL1        0.0044
     20 C          62.6020   85.8693    8.6596 C.ar    1  UNL1        0.0966
     21 N          63.3472   84.5732    8.5381 N.ar    1  UNL1       -0.2273
     22 C          63.4595   83.9728    9.9082 C.ar    1  UNL1        0.1403
     23 N          64.0898   82.7033   10.3991 N.ar    1  UNL1       -0.3367
     24 C          64.0443   82.3590   11.8583 C.ar    1  UNL1        0.0850
     25 C          63.3686   83.2841   12.8266 C.ar    1  UNL1        0.0747
     26 CL         63.3231   82.9397   14.2858 Cl      1  UNL1       -0.0807
     27 C          62.7383   84.5536   12.3356 C.ar    1  UNL1        0.0156
     28 C          62.7838   84.8980   10.8764 C.ar    1  UNL1        0.0327
     29 H          64.5333   82.0961    9.7636 H       1  UNL1        0.1674
@<TRIPOS>BOND
     1    16    17    1
     2    17    10    1
     3    10    11   ar
     4    11    12   ar
     5    12    13   ar
     6    13     9    1
     7     9     7    1
     8     7     1    1
     9     1     2   ar
    10     2     3   ar
    11     3     4   ar
    12     4    18    1
    13    18    19    1
    14    19    20   ar
    15    20    21   ar
    16    21    22   ar
    17    22    23   ar
    18    23    24   ar
    19    24    25   ar
    20    25    26    1
    21    25    27   ar
    22    27    28   ar
    23     4     5   ar
    24     5     6   ar
    25    13    14   ar
    26    14    15   ar
    27    15    10   ar
    28     6     1   ar
    29    28    19   ar
    30    28    22    1
    31     7     8    1
    32    23    29    1
@<TRIPOS>MOLECULE
*****
 29 32 0 0 0
SMALL
GASTEIGER

@<TRIPOS>ATOM
      1 C          63.9826   84.9914   15.6886 C.ar    1  UNL1        0.2172
      2 N          63.1173   85.6385   16.7290 N.ar    1  UNL1       -0.2126
      3 C          62.9817   87.1318   16.7687 C.ar    1  UNL1        0.0994
      4 C          63.7113   87.9781   15.7679 C.ar    1  UNL1        0.0207
      5 C          64.5766   87.3310   14.7275 C.ar    1  UNL1        0.0994
      6 N          64.7122   85.8377   14.6878 N.ar    1  UNL1       -0.2126
      7 N          64.1183   83.4981   15.6489 N.pl3   1  UNL1       -0.2990
      8 H          64.7089   83.0403   16.2899 H       1  UNL1        0.1500
      9 C          63.3542   82.7023   14.6325 C.3     1  UNL1        0.1180
     10 C          63.5109   83.8604   10.2870 C.ar    1  UNL1        0.2250
     11 C          64.4080   82.7766   10.8072 C.ar    1  UNL1        0.0574
     12 C          64.3558   82.3906   12.2557 C.ar    1  UNL1        0.0037
     13 C          63.4064   83.0883   13.1840 C.ar    1  UNL1        0.0168
     14 C          62.5093   84.1721   12.6639 C.ar    1  UNL1        0.0994
     15 N          62.5616   84.5581   11.2153 N.ar    1  UNL1       -0.2104
     16 C          62.8458   85.4752    8.3635 C.3     1  UNL1        0.2542
     17 O          63.5631   84.2464    8.8385 O.3     1  UNL1       -0.4561
     18 C          63.5756   89.4715   15.8076 C.3     1  UNL1        0.0575
     19 C          63.8140   90.2795   14.5665 C.ar    1  UNL1        0.0044
     20 C          63.0503   90.1662   13.2805 C.ar    1  UNL1        0.0966
     21 N          63.6223   91.1593   12.3128 N.ar    1  UNL1       -0.2273
     22 C          64.7395   91.8864   13.0007 C.ar    1  UNL1        0.1403
     23 N          65.6642   92.9733   12.5388 N.ar    1  UNL1       -0.3367
     24 C          66.7074   93.5164   13.4697 C.ar    1  UNL1        0.0850
     25 C          66.8259   92.9726   14.8626 C.ar    1  UNL1        0.0747
     26 CL         67.8692   93.5158   15.7936 Cl      1  UNL1       -0.0807
     27 C          65.9012   91.8857   15.3246 C.ar    1  UNL1        0.0156
     28 C          64.8580   91.3426   14.3937 C.ar    1  UNL1        0.0327
     29 H          65.5864   93.3302   11.6245 H       1  UNL1        0.1674
@<TRIPOS>BOND
     1    16    17    1
     2    17    10    1
     3    10    11   ar
     4    11    12   ar
     5    12    13   ar
     6    13     9    1
     7     9     7    1
     8     7     1    1
     9     1     2   ar
    10     2     3   ar
    11     3     4   ar
    12     4    18    1
    13    18    19    1
    14    19    20   ar
    15    20    21   ar
    16    21    22   ar
    17    22    23   ar
    18    23    24   ar
    19    24    25   ar
    20    25    26    1
    21    25    27   ar
    22    27    28   ar
    23     4     5   ar
    24     5     6   ar
    25    13    14   ar
    26    14    15   ar
    27    15    10   ar
    28     6     1   ar
    29    28    19   ar
    30    28    22    1
    31     7     8    1
    32    23    29    1
@<TRIPOS>MOLECULE
*****
 29 32 0 0 0
SMALL
GASTEIGER

@<TRIPOS>ATOM
      1 C          62.6248   89.9054   11.3253 C.ar    1  UNL1        0.2172
      2 N          61.9038   89.5991   10.0461 N.ar    1  UNL1       -0.2126
      3 C          61.6133   88.1761    9.6712 C.ar    1  UNL1        0.0994
      4 C          62.0437   87.0594   10.5755 C.ar    1  UNL1        0.0207
      5 C          62.7646   87.3657   11.8547 C.ar    1  UNL1        0.0994
      6 N          63.0552   88.7887   12.2296 N.ar    1  UNL1       -0.2126
      7 N          62.9154   91.3284   11.7002 N.pl3   1  UNL1       -0.2990
      8 H          62.2114   91.8840   12.1064 H       1  UNL1        0.1500
      9 C          64.2785   91.9050   11.4562 C.3     1  UNL1        0.1180
     10 C          67.0727   92.6144   14.9115 C.ar    1  UNL1        0.2250
     11 C          66.0989   91.4744   14.9563 C.ar    1  UNL1        0.0574
     12 C          65.1675   91.2380   13.8045 C.ar    1  UNL1        0.0037
     13 C          65.2099   92.1416   12.6079 C.ar    1  UNL1        0.0168
     14 C          66.1837   93.2816   12.5631 C.ar    1  UNL1        0.0994
     15 N          67.1151   93.5180   13.7149 N.ar    1  UNL1       -0.2104
     16 C          68.9509   94.0141   16.0354 C.3     1  UNL1        0.2542
     17 O          68.0041   92.8509   16.0632 O.3     1  UNL1       -0.4561
     18 C          61.7531   85.6363   10.2006 C.3     1  UNL1        0.0575
     19 C          62.7681   84.5664   10.4743 C.ar    1  UNL1        0.0044
     20 C          63.6562   83.9127    9.4574 C.ar    1  UNL1        0.0966
     21 N          64.5102   82.9046   10.1676 N.ar    1  UNL1       -0.2273
     22 C          64.1500   82.9352   11.6234 C.ar    1  UNL1        0.1403
     23 N          64.6632   82.1606   12.8008 N.ar    1  UNL1       -0.3367
     24 C          64.0998   82.4130   14.1679 C.ar    1  UNL1        0.0850
     25 C          63.0231   83.4400   14.3574 C.ar    1  UNL1        0.0747
     26 CL         62.4596   83.6924   15.7245 Cl      1  UNL1       -0.0807
     27 C          62.5098   84.2146   13.1799 C.ar    1  UNL1        0.0156
     28 C          63.0733   83.9622   11.8129 C.ar    1  UNL1        0.0327
     29 H          65.3699   81.4865   12.6764 H       1  UNL1        0.1674
@<TRIPOS>BOND
     1    16    17    1
     2    17    10    1
     3    10    11   ar
     4    11    12   ar
     5    12    13   ar
     6    13     9    1
     7     9     7    1
     8     7     1    1
     9     1     2   ar
    10     2     3   ar
    11     3     4   ar
    12     4    18    1
    13    18    19    1
    14    19    20   ar
    15    20    21   ar
    16    21    22   ar
    17    22    23   ar
    18    23    24   ar
    19    24    25   ar
    20    25    26    1
    21    25    27   ar
    22    27    28   ar
    23     4     5   ar
    24     5     6   ar
    25    13    14   ar
    26    14    15   ar
    27    15    10   ar
    28     6     1   ar
    29    28    19   ar
    30    28    22    1
    31     7     8    1
    32    23    29    1
@<TRIPOS>MOLECULE
*****
 29 32 0 0 0
SMALL
GASTEIGER

@<TRIPOS>ATOM
      1 C          60.9515   86.7797    8.7802 C.ar    1  UNL1        0.2172
      2 N          60.9425   86.3291   10.2109 N.ar    1  UNL1       -0.2126
      3 C          61.8981   85.2675   10.6688 C.ar    1  UNL1        0.0994
      4 C          62.8627   84.6564    9.6960 C.ar    1  UNL1        0.0207
      5 C          62.8716   85.1071    8.2653 C.ar    1  UNL1        0.0994
      6 N          61.9160   86.1687    7.8075 N.ar    1  UNL1       -0.2126
      7 N          59.9959   87.8414    8.3222 N.pl3   1  UNL1       -0.2990
      8 H          59.2508   87.6076    7.7226 H       1  UNL1        0.1500
      9 C          60.1753   89.2592    8.7778 C.3     1  UNL1        0.1180
     10 C          62.3768   90.1315   12.6043 C.ar    1  UNL1        0.2250
     11 C          63.0702   90.3002   11.2849 C.ar    1  UNL1        0.0574
     12 C          62.3363   90.0094   10.0095 C.ar    1  UNL1        0.0037
     13 C          60.9091   89.5500   10.0533 C.ar    1  UNL1        0.0168
     14 C          60.2157   89.3813   11.3727 C.ar    1  UNL1        0.0994
     15 N          60.9496   89.6721   12.6482 N.ar    1  UNL1       -0.2104
     16 C          64.4231   89.7522   14.1595 C.3     1  UNL1        0.2542
     17 O          63.1106   90.4223   13.8798 O.3     1  UNL1       -0.4561
     18 C          63.8183   83.5947   10.1540 C.3     1  UNL1        0.0575
     19 C          63.5375   82.8240   11.4098 C.ar    1  UNL1        0.0044
     20 C          63.1304   81.3824   11.4872 C.ar    1  UNL1        0.0966
     21 N          62.9558   81.0271   12.9340 N.ar    1  UNL1       -0.2273
     22 C          63.2551   82.2491   13.7508 C.ar    1  UNL1        0.1403
     23 N          63.2466   82.4941   15.2306 N.ar    1  UNL1       -0.3367
     24 C          63.5977   83.8496   15.7684 C.ar    1  UNL1        0.0850
     25 C          63.9573   84.9602   14.8264 C.ar    1  UNL1        0.0747
     26 CL         64.3084   86.3157   15.3643 Cl      1  UNL1       -0.0807
     27 C          63.9657   84.7152   13.3466 C.ar    1  UNL1        0.0156
     28 C          63.6146   83.3597   12.8088 C.ar    1  UNL1        0.0327
     29 H          63.0107   81.7652   15.8489 H       1  UNL1        0.1674
@<TRIPOS>BOND
     1    16    17    1
     2    17    10    1
     3    10    11   ar
     4    11    12   ar
     5    12    13   ar
     6    13     9    1
     7     9     7    1
     8     7     1    1
     9     1     2   ar
    10     2     3   ar
    11     3     4   ar
    12     4    18    1
    13    18    19    1
    14    19    20   ar
    15    20    21   ar
    16    21    22   ar
    17    22    23   ar
    18    23    24   ar
    19    24    25   ar
    20    25    26    1
    21    25    27   ar
    22    27    28   ar
    23     4     5   ar
    24     5     6   ar
    25    13    14   ar
    26    14    15   ar
    27    15    10   ar
    28     6     1   ar
    29    28    19   ar
    30    28    22    1
    31     7     8    1
    32    23    29    1
@<TRIPOS>MOLECULE
*****
 29 32 0 0 0
SMALL
GASTEIGER

@<TRIPOS>ATOM
      1 C          61.7725   89.5978   11.3640 C.ar    1  UNL1        0.2172
      2 N          61.9064   90.3187   10.0554 N.ar    1  UNL1       -0.2126
      3 C          62.9671   91.3648    9.8806 C.ar    1  UNL1        0.0994
      4 C          63.8939   91.6900   11.0143 C.ar    1  UNL1        0.0207
      5 C          63.7600   90.9691   12.3229 C.ar    1  UNL1        0.0994
      6 N          62.6993   89.9230   12.4977 N.ar    1  UNL1       -0.2126
      7 N          60.7118   88.5518   11.5388 N.pl3   1  UNL1       -0.2990
      8 H          60.1519   88.5491   12.3486 H       1  UNL1        0.1500
      9 C          60.5041   87.5098   10.4800 C.3     1  UNL1        0.1180
     10 C          63.4155   84.1026   10.0743 C.ar    1  UNL1        0.2250
     11 C          63.0807   84.9490    8.8821 C.ar    1  UNL1        0.0574
     12 C          62.1102   86.0847    9.0173 C.ar    1  UNL1        0.0037
     13 C          61.4745   86.3740   10.3448 C.ar    1  UNL1        0.0168
     14 C          61.8093   85.5276   11.5371 C.ar    1  UNL1        0.0994
     15 N          62.7798   84.3919   11.4018 N.ar    1  UNL1       -0.2104
     16 C          64.1608   81.6935   10.6993 C.3     1  UNL1        0.2542
     17 O          64.3859   82.9669    9.9391 O.3     1  UNL1       -0.4561
     18 C          64.9547   92.7362   10.8395 C.3     1  UNL1        0.0575
     19 C          66.3640   92.4544   11.2690 C.ar    1  UNL1        0.0044
     20 C          67.5231   92.1723   10.3597 C.ar    1  UNL1        0.0966
     21 N          68.7370   91.9488   11.2121 N.ar    1  UNL1       -0.2273
     22 C          68.3281   92.0928   12.6481 C.ar    1  UNL1        0.1403
     23 N          69.1018   91.9797   13.9281 N.ar    1  UNL1       -0.3367
     24 C          68.4088   92.1792   15.2434 C.ar    1  UNL1        0.0850
     25 C          66.9422   92.4916   15.2786 C.ar    1  UNL1        0.0747
     26 CL         66.2492   92.6911   16.5939 Cl      1  UNL1       -0.0807
     27 C          66.1685   92.6047   13.9985 C.ar    1  UNL1        0.0156
     28 C          66.8615   92.4053   12.6833 C.ar    1  UNL1        0.0327
     29 H          70.0644   91.7747   13.9050 H       1  UNL1        0.1674
@<TRIPOS>BOND
     1    16    17    1
     2    17    10    1
     3    10    11   ar
     4    11    12   ar
     5    12    13   ar
     6    13     9    1
     7     9     7    1
     8     7     1    1
     9     1     2   ar
    10     2     3   ar
    11     3     4   ar
    12     4    18    1
    13    18    19    1
    14    19    20   ar
    15    20    21   ar
    16    21    22   ar
    17    22    23   ar
    18    23    24   ar
    19    24    25   ar
    20    25    26    1
    21    25    27   ar
    22    27    28   ar
    23     4     5   ar
    24     5     6   ar
    25    13    14   ar
    26    14    15   ar
    27    15    10   ar
    28     6     1   ar
    29    28    19   ar
    30    28    22    1
    31     7     8    1
    32    23    29    1
