@<TRIPOS>MOLECULE
*****
 29 32 0 0 0
SMALL
GASTEIGER

@<TRIPOS>ATOM
      1 C          63.3469   87.4177   16.4244 C.ar    1  UNL1        0.1386
      2 C          63.0532   88.8409   16.7961 C.ar    1  UNL1        0.0369
      3 C          63.5456   89.9599   15.9270 C.ar    1  UNL1        0.0032
      4 C          64.3318   89.6557   14.6863 C.ar    1  UNL1        0.0019
      5 C          64.6256   88.2325   14.3147 C.ar    1  UNL1        0.0032
      6 C          64.1332   87.1135   15.1837 C.ar    1  UNL1        0.0369
      7 C          64.8243   90.7748   13.8172 C.ar    1  UNL1        0.0257
      8 C          64.1140   91.0978   12.5362 C.ar    1  UNL1        0.1208
      9 N          64.6065   92.2169   11.6671 N.ar    1  UNL1       -0.1596
     10 N          65.8091   93.0129   12.0792 N.ar    1  UNL1       -0.1766
     11 C          66.5194   92.6899   13.3603 C.ar    1  UNL1        0.2818
     12 O          67.7221   93.4860   13.7724 O.2     1  UNL1       -0.2651
     13 C          66.0269   91.5709   14.2293 C.ar    1  UNL1        0.0642
     14 C          66.3016   94.1320   11.2102 C.ar    1  UNL1        0.1669
     15 C          67.0504   93.8267    9.9469 C.ar    1  UNL1        0.0389
     16 C          67.5429   94.9457    9.0778 C.ar    1  UNL1        0.0047
     17 C          67.2865   96.3701    9.4721 C.ar    1  UNL1        0.0208
     18 C          66.5377   96.6754   10.7355 C.ar    1  UNL1        0.1006
     19 N          66.0453   95.5563   11.6045 N.ar    1  UNL1       -0.2249
     20 O          62.8545   86.2986   17.2935 O.3     1  UNL1       -0.4754
     21 C          61.9898   85.2207   16.7101 C.3     1  UNL1        0.2068
     22 C          62.6044   84.1340   15.8786 C.3     1  UNL1        0.0646
     23 C          62.3719   84.1008   14.3971 C.3     1  UNL1        0.0759
     24 C          63.2914   83.7332   11.2876 C.3     1  UNL1        0.0173
     25 C          62.8863   82.6330   12.2232 C.3     1  UNL1        0.0576
     26 C          62.8327   81.1706   11.8938 C.3     1  UNL1        0.0174
     27 C          62.3769   80.4357   13.1195 C.3     1  UNL1        0.0187
     28 C          62.1488   81.4439   14.2064 C.3     1  UNL1        0.0721
     29 N          62.4636   82.8019   13.6525 N.3     1  UNL1       -0.2738
@<TRIPOS>BOND
     1    25    24    1
     2    25    26    1
     3    26    27    1
     4    27    28    1
     5    28    29    1
     6    29    23    1
     7    23    22    1
     8    22    21    1
     9    21    20    1
    10    20     1    1
    11     1     2   ar
    12     2     3   ar
    13     3     4   ar
    14     4     7    1
    15     7     8   ar
    16     8     9   ar
    17     9    10   ar
    18    10    14    1
    19    14    15   ar
    20    15    16   ar
    21    16    17   ar
    22    17    18   ar
    23    18    19   ar
    24    10    11   ar
    25    11    12    2
    26    11    13   ar
    27     4     5   ar
    28     5     6   ar
    29    29    25    1
    30     6     1   ar
    31    13     7   ar
    32    19    14   ar
@<TRIPOS>MOLECULE
*****
 29 32 0 0 0
SMALL
GASTEIGER

@<TRIPOS>ATOM
      1 C          63.3875   87.4540   16.3528 C.ar    1  UNL1        0.1386
      2 C          63.1245   88.8678   16.7794 C.ar    1  UNL1        0.0369
      3 C          63.6116   90.0085   15.9360 C.ar    1  UNL1        0.0032
      4 C          64.3617   89.7355   14.6660 C.ar    1  UNL1        0.0019
      5 C          64.6247   88.3217   14.2394 C.ar    1  UNL1        0.0032
      6 C          64.1375   87.1810   15.0828 C.ar    1  UNL1        0.0369
      7 C          64.8489   90.8763   13.8226 C.ar    1  UNL1        0.0257
      8 C          65.8978   91.8075   14.3541 C.ar    1  UNL1        0.1208
      9 N          66.3850   92.9484   13.5107 N.ar    1  UNL1       -0.1596
     10 N          65.8231   93.1579   12.1358 N.ar    1  UNL1       -0.1766
     11 C          64.7741   92.2267   11.6043 C.ar    1  UNL1        0.2818
     12 O          64.2122   92.4362   10.2294 O.2     1  UNL1       -0.2651
     13 C          64.2870   91.0859   12.4477 C.ar    1  UNL1        0.0642
     14 C          66.3102   94.2987   11.2924 C.ar    1  UNL1        0.1669
     15 C          65.9344   95.7070   11.6464 C.ar    1  UNL1        0.0389
     16 C          66.4215   96.8479   10.8030 C.ar    1  UNL1        0.0047
     17 C          67.2843   96.5803    9.6055 C.ar    1  UNL1        0.0208
     18 C          67.6601   95.1719    9.2515 C.ar    1  UNL1        0.1006
     19 N          67.1730   94.0311   10.0949 N.ar    1  UNL1       -0.2249
     20 O          62.9003   86.3132   17.1962 O.3     1  UNL1       -0.4754
     21 C          62.1958   85.1542   16.5556 C.3     1  UNL1        0.2068
     22 C          62.9559   84.2099   15.6720 C.3     1  UNL1        0.0646
     23 C          62.2168   83.2907   14.7454 C.3     1  UNL1        0.0759
     24 C          62.3424   80.4291   13.1817 C.3     1  UNL1        0.0173
     25 C          62.7771   81.7547   12.6307 C.3     1  UNL1        0.0576
     26 C          63.3459   81.9978   11.2642 C.3     1  UNL1        0.0174
     27 C          63.6397   83.4634   11.1383 C.3     1  UNL1        0.0187
     28 C          63.2525   84.1260   12.4271 C.3     1  UNL1        0.0721
     29 N          62.7194   83.0701   13.3494 N.3     1  UNL1       -0.2738
@<TRIPOS>BOND
     1    25    24    1
     2    25    26    1
     3    26    27    1
     4    27    28    1
     5    28    29    1
     6    29    23    1
     7    23    22    1
     8    22    21    1
     9    21    20    1
    10    20     1    1
    11     1     2   ar
    12     2     3   ar
    13     3     4   ar
    14     4     7    1
    15     7     8   ar
    16     8     9   ar
    17     9    10   ar
    18    10    14    1
    19    14    15   ar
    20    15    16   ar
    21    16    17   ar
    22    17    18   ar
    23    18    19   ar
    24    10    11   ar
    25    11    12    2
    26    11    13   ar
    27     4     5   ar
    28     5     6   ar
    29    29    25    1
    30     6     1   ar
    31    13     7   ar
    32    19    14   ar
@<TRIPOS>MOLECULE
*****
 29 32 0 0 0
SMALL
GASTEIGER

@<TRIPOS>ATOM
      1 C          64.5635   91.3040   13.5733 C.ar    1  UNL1        0.1386
      2 C          65.0104   90.3889   14.6746 C.ar    1  UNL1        0.0369
      3 C          64.6831   88.9264   14.6136 C.ar    1  UNL1        0.0032
      4 C          63.9087   88.3789   13.4513 C.ar    1  UNL1        0.0019
      5 C          63.4618   89.2941   12.3501 C.ar    1  UNL1        0.0032
      6 C          63.7892   90.7566   12.4111 C.ar    1  UNL1        0.0369
      7 C          63.5814   86.9163   13.3904 C.ar    1  UNL1        0.0257
      8 C          62.7329   86.3836   12.2741 C.ar    1  UNL1        0.1208
      9 N          62.4055   84.9209   12.2131 N.ar    1  UNL1       -0.1596
     10 N          62.9267   83.9911   13.2685 N.ar    1  UNL1       -0.1766
     11 C          63.7752   84.5240   14.3849 C.ar    1  UNL1        0.2818
     12 O          64.2964   83.5942   15.4403 O.2     1  UNL1       -0.2651
     13 C          64.1025   85.9865   14.4458 C.ar    1  UNL1        0.0642
     14 C          62.5994   82.5286   13.2076 C.ar    1  UNL1        0.1669
     15 C          63.1643   81.6788   12.1082 C.ar    1  UNL1        0.0389
     16 C          62.8370   80.2162   12.0473 C.ar    1  UNL1        0.0047
     17 C          61.9447   79.6034   13.0857 C.ar    1  UNL1        0.0208
     18 C          61.3798   80.4533   14.1852 C.ar    1  UNL1        0.1006
     19 N          61.7071   81.9158   14.2461 N.ar    1  UNL1       -0.2249
     20 O          64.8909   92.7666   13.6343 O.3     1  UNL1       -0.4754
     21 C          66.3002   93.2096   13.8942 C.3     1  UNL1        0.2068
     22 C          67.4213   92.6768   13.0519 C.3     1  UNL1        0.0646
     23 C          67.2095   92.4361   11.5866 C.3     1  UNL1        0.0759
     24 C          68.6866   92.4359    8.6768 C.3     1  UNL1        0.0173
     25 C          67.9381   93.5845    9.2856 C.3     1  UNL1        0.0576
     26 C          67.7372   94.9346    8.6637 C.3     1  UNL1        0.0174
     27 C          66.9341   95.7692    9.6169 C.3     1  UNL1        0.0187
     28 C          66.6386   94.9347   10.8278 C.3     1  UNL1        0.0721
     29 N          67.2592   93.5845   10.6231 N.3     1  UNL1       -0.2738
@<TRIPOS>BOND
     1    25    24    1
     2    25    26    1
     3    26    27    1
     4    27    28    1
     5    28    29    1
     6    29    23    1
     7    23    22    1
     8    22    21    1
     9    21    20    1
    10    20     1    1
    11     1     2   ar
    12     2     3   ar
    13     3     4   ar
    14     4     7    1
    15     7     8   ar
    16     8     9   ar
    17     9    10   ar
    18    10    14    1
    19    14    15   ar
    20    15    16   ar
    21    16    17   ar
    22    17    18   ar
    23    18    19   ar
    24    10    11   ar
    25    11    12    2
    26    11    13   ar
    27     4     5   ar
    28     5     6   ar
    29    29    25    1
    30     6     1   ar
    31    13     7   ar
    32    19    14   ar
@<TRIPOS>MOLECULE
*****
 29 32 0 0 0
SMALL
GASTEIGER

@<TRIPOS>ATOM
      1 C          60.0308   88.0057    9.9071 C.ar    1  UNL1        0.1386
      2 C          61.2014   87.1983   10.3842 C.ar    1  UNL1        0.0369
      3 C          62.3153   87.8643   11.1363 C.ar    1  UNL1        0.0032
      4 C          62.2585   89.3378   11.4112 C.ar    1  UNL1        0.0019
      5 C          61.0880   90.1453   10.9341 C.ar    1  UNL1        0.0032
      6 C          59.9741   89.4792   10.1820 C.ar    1  UNL1        0.0369
      7 C          63.3725   90.0038   12.1633 C.ar    1  UNL1        0.0257
      8 C          63.9035   89.3838   13.4217 C.ar    1  UNL1        0.1208
      9 N          65.0175   90.0499   14.1738 N.ar    1  UNL1       -0.1596
     10 N          65.6003   91.3359   13.6675 N.ar    1  UNL1       -0.1766
     11 C          65.0692   91.9559   12.4090 C.ar    1  UNL1        0.2818
     12 O          65.6521   93.2420   11.9027 O.2     1  UNL1       -0.2651
     13 C          63.9554   91.2899   11.6570 C.ar    1  UNL1        0.0642
     14 C          66.7142   92.0020   14.4195 C.ar    1  UNL1        0.1669
     15 C          66.4555   92.5963   15.7722 C.ar    1  UNL1        0.0389
     16 C          67.5694   93.2624   16.5243 C.ar    1  UNL1        0.0047
     17 C          68.9420   93.3341   15.9237 C.ar    1  UNL1        0.0208
     18 C          69.2007   92.7397   14.5709 C.ar    1  UNL1        0.1006
     19 N          68.0868   92.0737   13.8189 N.ar    1  UNL1       -0.2249
     20 O          58.9169   87.3397    9.1550 O.3     1  UNL1       -0.4754
     21 C          58.9894   87.2153    7.6619 C.3     1  UNL1        0.2068
     22 C          59.5341   88.3462    6.8406 C.3     1  UNL1        0.0646
     23 C          58.7025   89.5728    6.6082 C.3     1  UNL1        0.0759
     24 C          56.7421   91.5958    4.9610 C.3     1  UNL1        0.0173
     25 C          58.2354   91.5225    4.8404 C.3     1  UNL1        0.0576
     26 C          59.0898   92.3663    3.9415 C.3     1  UNL1        0.0174
     27 C          60.5190   91.9579    4.1431 C.3     1  UNL1        0.0187
     28 C          60.5479   90.8617    5.1666 C.3     1  UNL1        0.0721
     29 N          59.1365   90.5926    5.5975 N.3     1  UNL1       -0.2738
@<TRIPOS>BOND
     1    25    24    1
     2    25    26    1
     3    26    27    1
     4    27    28    1
     5    28    29    1
     6    29    23    1
     7    23    22    1
     8    22    21    1
     9    21    20    1
    10    20     1    1
    11     1     2   ar
    12     2     3   ar
    13     3     4   ar
    14     4     7    1
    15     7     8   ar
    16     8     9   ar
    17     9    10   ar
    18    10    14    1
    19    14    15   ar
    20    15    16   ar
    21    16    17   ar
    22    17    18   ar
    23    18    19   ar
    24    10    11   ar
    25    11    12    2
    26    11    13   ar
    27     4     5   ar
    28     5     6   ar
    29    29    25    1
    30     6     1   ar
    31    13     7   ar
    32    19    14   ar
@<TRIPOS>MOLECULE
*****
 29 32 0 0 0
SMALL
GASTEIGER

@<TRIPOS>ATOM
      1 C          64.7943   91.5481   13.5695 C.ar    1  UNL1        0.1386
      2 C          63.8846   91.0347   12.4931 C.ar    1  UNL1        0.0369
      3 C          63.5287   89.5784   12.4434 C.ar    1  UNL1        0.0032
      4 C          64.0825   88.6355   13.4702 C.ar    1  UNL1        0.0019
      5 C          64.9922   89.1490   14.5467 C.ar    1  UNL1        0.0032
      6 C          65.3481   90.6052   14.5963 C.ar    1  UNL1        0.0369
      7 C          63.7265   87.1792   13.4205 C.ar    1  UNL1        0.0257
      8 C          64.1649   86.2619   14.5233 C.ar    1  UNL1        0.1208
      9 N          63.8089   84.8055   14.4736 N.ar    1  UNL1       -0.1596
     10 N          63.0146   84.2666   13.3210 N.ar    1  UNL1       -0.1766
     11 C          62.5762   85.1839   12.2181 C.ar    1  UNL1        0.2818
     12 O          61.7819   84.6450   11.0655 O.2     1  UNL1       -0.2651
     13 C          62.9322   86.6402   12.2679 C.ar    1  UNL1        0.0642
     14 C          62.6586   82.8103   13.2713 C.ar    1  UNL1        0.1669
     15 C          63.3005   81.9157   12.2526 C.ar    1  UNL1        0.0389
     16 C          62.9446   80.4594   12.2028 C.ar    1  UNL1        0.0047
     17 C          61.9467   79.8977   13.1717 C.ar    1  UNL1        0.0208
     18 C          61.3048   80.7923   14.1904 C.ar    1  UNL1        0.1006
     19 N          61.6608   82.2486   14.2401 N.ar    1  UNL1       -0.2249
     20 O          65.1503   93.0045   13.6193 O.3     1  UNL1       -0.4754
     21 C          66.2495   93.5380   12.7493 C.3     1  UNL1        0.2068
     22 C          66.6412   92.8042   11.5010 C.3     1  UNL1        0.0646
     23 C          66.1136   93.2528   10.1704 C.3     1  UNL1        0.0759
     24 C          65.9575   96.2350   11.4864 C.3     1  UNL1        0.0173
     25 C          66.5532   95.8893   10.1538 C.3     1  UNL1        0.0576
     26 C          67.1818   96.8538    9.1923 C.3     1  UNL1        0.0174
     27 C          67.6421   96.0791    7.9930 C.3     1  UNL1        0.0187
     28 C          67.2979   94.6358    8.2135 C.3     1  UNL1        0.0721
     29 N          66.6250   94.5186    9.5490 N.3     1  UNL1       -0.2738
@<TRIPOS>BOND
     1    25    24    1
     2    25    26    1
     3    26    27    1
     4    27    28    1
     5    28    29    1
     6    29    23    1
     7    23    22    1
     8    22    21    1
     9    21    20    1
    10    20     1    1
    11     1     2   ar
    12     2     3   ar
    13     3     4   ar
    14     4     7    1
    15     7     8   ar
    16     8     9   ar
    17     9    10   ar
    18    10    14    1
    19    14    15   ar
    20    15    16   ar
    21    16    17   ar
    22    17    18   ar
    23    18    19   ar
    24    10    11   ar
    25    11    12    2
    26    11    13   ar
    27     4     5   ar
    28     5     6   ar
    29    29    25    1
    30     6     1   ar
    31    13     7   ar
    32    19    14   ar
@<TRIPOS>MOLECULE
*****
 29 32 0 0 0
SMALL
GASTEIGER

@<TRIPOS>ATOM
      1 C          63.4193   83.7914   11.7887 C.ar    1  UNL1        0.1386
      2 C          62.4167   84.7336   12.3863 C.ar    1  UNL1        0.0369
      3 C          61.6837   85.7042   11.5086 C.ar    1  UNL1        0.0032
      4 C          61.9534   85.7328   10.0333 C.ar    1  UNL1        0.0019
      5 C          62.9560   84.7907    9.4357 C.ar    1  UNL1        0.0032
      6 C          63.6889   83.8200   10.3135 C.ar    1  UNL1        0.0369
      7 C          61.2203   86.7036    9.1555 C.ar    1  UNL1        0.0257
      8 C          60.6965   86.2608    7.8216 C.ar    1  UNL1        0.1208
      9 N          59.9635   87.2316    6.9438 N.ar    1  UNL1       -0.1596
     10 N          59.7543   88.6451    7.4002 N.ar    1  UNL1       -0.1766
     11 C          60.2781   89.0878    8.7342 C.ar    1  UNL1        0.2818
     12 O          60.0689   90.5013    9.1905 O.2     1  UNL1       -0.2651
     13 C          61.0111   88.1171    9.6119 C.ar    1  UNL1        0.0642
     14 C          59.0213   89.6158    6.5225 C.ar    1  UNL1        0.1669
     15 C          59.7874   90.6030    5.6928 C.ar    1  UNL1        0.0389
     16 C          59.0544   91.5738    4.8150 C.ar    1  UNL1        0.0047
     17 C          57.5553   91.5574    4.7671 C.ar    1  UNL1        0.0208
     18 C          56.7891   90.5701    5.5969 C.ar    1  UNL1        0.1006
     19 N          57.5221   89.5994    6.4746 N.ar    1  UNL1       -0.2249
     20 O          64.1524   82.8207   12.6665 O.3     1  UNL1       -0.4754
     21 C          64.3799   83.1422   14.1138 C.3     1  UNL1        0.2068
     22 C          64.7288   84.5419   14.5253 C.3     1  UNL1        0.0646
     23 C          64.0218   85.1814   15.6834 C.3     1  UNL1        0.0759
     24 C          62.5966   86.8778   18.0793 C.3     1  UNL1        0.0173
     25 C          63.1986   87.4510   16.8307 C.3     1  UNL1        0.0576
     26 C          63.2512   88.9045   16.4641 C.3     1  UNL1        0.0174
     27 C          63.9387   89.0232   15.1362 C.3     1  UNL1        0.0187
     28 C          64.3111   87.6429   14.6822 C.3     1  UNL1        0.0721
     29 N          63.8537   86.6712   15.7294 N.3     1  UNL1       -0.2738
@<TRIPOS>BOND
     1    25    24    1
     2    25    26    1
     3    26    27    1
     4    27    28    1
     5    28    29    1
     6    29    23    1
     7    23    22    1
     8    22    21    1
     9    21    20    1
    10    20     1    1
    11     1     2   ar
    12     2     3   ar
    13     3     4   ar
    14     4     7    1
    15     7     8   ar
    16     8     9   ar
    17     9    10   ar
    18    10    14    1
    19    14    15   ar
    20    15    16   ar
    21    16    17   ar
    22    17    18   ar
    23    18    19   ar
    24    10    11   ar
    25    11    12    2
    26    11    13   ar
    27     4     5   ar
    28     5     6   ar
    29    29    25    1
    30     6     1   ar
    31    13     7   ar
    32    19    14   ar
@<TRIPOS>MOLECULE
*****
 29 32 0 0 0
SMALL
GASTEIGER

@<TRIPOS>ATOM
      1 C          63.9307   91.2801   12.2026 C.ar    1  UNL1        0.1386
      2 C          63.1930   90.5380   11.1279 C.ar    1  UNL1        0.0369
      3 C          62.9466   89.0650   11.2674 C.ar    1  UNL1        0.0032
      4 C          63.4380   88.3341   12.4816 C.ar    1  UNL1        0.0019
      5 C          64.1757   89.0762   13.5563 C.ar    1  UNL1        0.0032
      6 C          64.4220   90.5492   13.4168 C.ar    1  UNL1        0.0369
      7 C          63.1915   86.8610   12.6211 C.ar    1  UNL1        0.0257
      8 C          62.3805   86.1352   11.5890 C.ar    1  UNL1        0.1208
      9 N          62.1341   84.6621   11.7285 N.ar    1  UNL1       -0.1596
     10 N          62.6987   83.9149   12.9002 N.ar    1  UNL1       -0.1766
     11 C          63.5098   84.6408   13.9323 C.ar    1  UNL1        0.2818
     12 O          64.0745   83.8936   15.1040 O.2     1  UNL1       -0.2651
     13 C          63.7562   86.1138   13.7928 C.ar    1  UNL1        0.0642
     14 C          62.4524   82.4419   13.0397 C.ar    1  UNL1        0.1669
     15 C          63.0695   81.4827   12.0655 C.ar    1  UNL1        0.0389
     16 C          62.8232   80.0096   12.2050 C.ar    1  UNL1        0.0047
     17 C          61.9596   79.4958   13.3187 C.ar    1  UNL1        0.0208
     18 C          61.3425   80.4551   14.2929 C.ar    1  UNL1        0.1006
     19 N          61.5888   81.9281   14.1534 N.ar    1  UNL1       -0.2249
     20 O          64.1771   92.7532   12.0631 O.3     1  UNL1       -0.4754
     21 C          65.0727   93.2639   10.9736 C.3     1  UNL1        0.2068
     22 C          66.3805   93.9119   11.3199 C.3     1  UNL1        0.0646
     23 C          66.6284   94.4020   12.7157 C.3     1  UNL1        0.0759
     24 C          68.4121   91.6918   12.3660 C.3     1  UNL1        0.0173
     25 C          67.7936   92.1818   13.6417 C.3     1  UNL1        0.0576
     26 C          67.8864   91.5120   14.9806 C.3     1  UNL1        0.0174
     27 C          67.1239   92.3438   15.9689 C.3     1  UNL1        0.0187
     28 C          66.5598   93.5277   15.2407 C.3     1  UNL1        0.0721
     29 N          66.9737   93.4275   13.8024 N.3     1  UNL1       -0.2738
@<TRIPOS>BOND
     1    25    24    1
     2    25    26    1
     3    26    27    1
     4    27    28    1
     5    28    29    1
     6    29    23    1
     7    23    22    1
     8    22    21    1
     9    21    20    1
    10    20     1    1
    11     1     2   ar
    12     2     3   ar
    13     3     4   ar
    14     4     7    1
    15     7     8   ar
    16     8     9   ar
    17     9    10   ar
    18    10    14    1
    19    14    15   ar
    20    15    16   ar
    21    16    17   ar
    22    17    18   ar
    23    18    19   ar
    24    10    11   ar
    25    11    12    2
    26    11    13   ar
    27     4     5   ar
    28     5     6   ar
    29    29    25    1
    30     6     1   ar
    31    13     7   ar
    32    19    14   ar
@<TRIPOS>MOLECULE
*****
 29 32 0 0 0
SMALL
GASTEIGER

@<TRIPOS>ATOM
      1 C          60.3138   89.2091    9.9501 C.ar    1  UNL1        0.1386
      2 C          61.5168   89.6837    9.1902 C.ar    1  UNL1        0.0369
      3 C          62.7003   90.2357    9.9282 C.ar    1  UNL1        0.0032
      4 C          62.6808   90.3130   11.4261 C.ar    1  UNL1        0.0019
      5 C          61.4777   89.8385   12.1860 C.ar    1  UNL1        0.0032
      6 C          60.2942   89.2865   11.4480 C.ar    1  UNL1        0.0369
      7 C          63.8643   90.8650   12.1641 C.ar    1  UNL1        0.0257
      8 C          64.2023   90.3499   13.5317 C.ar    1  UNL1        0.1208
      9 N          65.3859   90.9019   14.2697 N.ar    1  UNL1       -0.1596
     10 N          66.2314   91.9690   13.6400 N.ar    1  UNL1       -0.1766
     11 C          65.8933   92.4841   12.2723 C.ar    1  UNL1        0.2818
     12 O          66.7388   93.5511   11.6426 O.2     1  UNL1       -0.2651
     13 C          64.7098   91.9321   11.5344 C.ar    1  UNL1        0.0642
     14 C          67.4149   92.5210   14.3779 C.ar    1  UNL1        0.1669
     15 C          67.2086   93.4010   15.5750 C.ar    1  UNL1        0.0389
     16 C          68.3921   93.9530   16.3130 C.ar    1  UNL1        0.0047
     17 C          69.7820   93.6250   15.8538 C.ar    1  UNL1        0.0208
     18 C          69.9882   92.7449   14.6567 C.ar    1  UNL1        0.1006
     19 N          68.8047   92.1930   13.9188 N.ar    1  UNL1       -0.2249
     20 O          59.1302   88.6572    9.2121 O.3     1  UNL1       -0.4754
     21 C          59.1314   88.6215    7.7125 C.3     1  UNL1        0.2068
     22 C          59.4708   87.3499    6.9928 C.3     1  UNL1        0.0646
     23 C          59.6189   86.0700    7.7608 C.3     1  UNL1        0.0759
     24 C          62.2008   84.7111    6.2992 C.3     1  UNL1        0.0173
     25 C          62.1134   85.1099    7.7425 C.3     1  UNL1        0.0576
     26 C          63.1975   84.9542    8.7674 C.3     1  UNL1        0.0174
     27 C          62.6808   85.4825   10.0728 C.3     1  UNL1        0.0187
     28 C          61.2773   85.9648    9.8545 C.3     1  UNL1        0.0721
     29 N          60.9267   85.7345    8.4144 N.3     1  UNL1       -0.2738
@<TRIPOS>BOND
     1    25    24    1
     2    25    26    1
     3    26    27    1
     4    27    28    1
     5    28    29    1
     6    29    23    1
     7    23    22    1
     8    22    21    1
     9    21    20    1
    10    20     1    1
    11     1     2   ar
    12     2     3   ar
    13     3     4   ar
    14     4     7    1
    15     7     8   ar
    16     8     9   ar
    17     9    10   ar
    18    10    14    1
    19    14    15   ar
    20    15    16   ar
    21    16    17   ar
    22    17    18   ar
    23    18    19   ar
    24    10    11   ar
    25    11    12    2
    26    11    13   ar
    27     4     5   ar
    28     5     6   ar
    29    29    25    1
    30     6     1   ar
    31    13     7   ar
    32    19    14   ar
@<TRIPOS>MOLECULE
*****
 29 32 0 0 0
SMALL
GASTEIGER

@<TRIPOS>ATOM
      1 C          60.4070   89.1404    9.9080 C.ar    1  UNL1        0.1386
      2 C          61.6016   89.7264    9.2155 C.ar    1  UNL1        0.0369
      3 C          62.7271   90.3040   10.0215 C.ar    1  UNL1        0.0032
      4 C          62.6581   90.2955   11.5198 C.ar    1  UNL1        0.0019
      5 C          61.4635   89.7095   12.2123 C.ar    1  UNL1        0.0032
      6 C          60.3380   89.1320   11.4064 C.ar    1  UNL1        0.0369
      7 C          63.7837   90.8731   12.3258 C.ar    1  UNL1        0.0257
      8 C          63.9574   90.4780   13.7623 C.ar    1  UNL1        0.1208
      9 N          65.0830   91.0555   14.5683 N.ar    1  UNL1       -0.1596
     10 N          66.0349   92.0282   13.9376 N.ar    1  UNL1       -0.1766
     11 C          65.8612   92.4233   12.5009 C.ar    1  UNL1        0.2818
     12 O          66.8131   93.3960   11.8703 O.2     1  UNL1       -0.2651
     13 C          64.7356   91.8457   11.6951 C.ar    1  UNL1        0.0642
     14 C          67.1605   92.6058   14.7434 C.ar    1  UNL1        0.1669
     15 C          68.0543   91.7014   15.5391 C.ar    1  UNL1        0.0389
     16 C          69.1799   92.2790   16.3450 C.ar    1  UNL1        0.0047
     17 C          69.4117   93.7609   16.3552 C.ar    1  UNL1        0.0208
     18 C          68.5178   94.6653   15.5594 C.ar    1  UNL1        0.1006
     19 N          67.3923   94.0877   14.7536 N.ar    1  UNL1       -0.2249
     20 O          59.2814   88.5628    9.1020 O.3     1  UNL1       -0.4754
     21 C          59.5550   87.4824    8.0982 C.3     1  UNL1        0.2068
     22 C          60.3469   86.2721    8.4960 C.3     1  UNL1        0.0646
     23 C          61.8220   86.3885    8.7417 C.3     1  UNL1        0.0759
     24 C          61.8327   85.8566   11.9614 C.3     1  UNL1        0.0173
     25 C          62.5582   85.0431   10.9310 C.3     1  UNL1        0.0576
     26 C          63.4160   83.8423   11.1996 C.3     1  UNL1        0.0174
     27 C          63.9413   83.3445    9.8856 C.3     1  UNL1        0.0187
     28 C          63.4081   84.2378    8.8050 C.3     1  UNL1        0.0721
     29 N          62.5533   85.2876    9.4511 N.3     1  UNL1       -0.2738
@<TRIPOS>BOND
     1    25    24    1
     2    25    26    1
     3    26    27    1
     4    27    28    1
     5    28    29    1
     6    29    23    1
     7    23    22    1
     8    22    21    1
     9    21    20    1
    10    20     1    1
    11     1     2   ar
    12     2     3   ar
    13     3     4   ar
    14     4     7    1
    15     7     8   ar
    16     8     9   ar
    17     9    10   ar
    18    10    14    1
    19    14    15   ar
    20    15    16   ar
    21    16    17   ar
    22    17    18   ar
    23    18    19   ar
    24    10    11   ar
    25    11    12    2
    26    11    13   ar
    27     4     5   ar
    28     5     6   ar
    29    29    25    1
    30     6     1   ar
    31    13     7   ar
    32    19    14   ar
