@<TRIPOS>MOLECULE
*****
 46 51 0 0 0
SMALL
GASTEIGER

@<TRIPOS>ATOM
      1 C          59.9726   92.6637    3.2480 C.ar    1  UNL1        0.1348
      2 C          60.4896   94.0714    3.2160 C.ar    1  UNL1        0.0346
      3 C          60.2158   94.9442    2.0272 C.ar    1  UNL1        0.0065
      4 C          59.4250   94.4092    0.8703 C.ar    1  UNL1        0.0432
      5 C          58.9080   93.0015    0.9023 C.ar    1  UNL1        0.1256
      6 N          59.1818   92.1288    2.0911 N.ar    1  UNL1       -0.2222
      7 C          59.1512   95.2819   -0.3185 C.ar    1  UNL1        0.0850
      8 C          60.1448   96.1685   -1.0090 C.ar    1  UNL1        0.1005
      9 N          59.4434   96.8559   -2.1428 N.ar    1  UNL1       -0.2264
     10 C          58.0163   96.3941   -2.1532 C.ar    1  UNL1        0.1474
     11 C          56.8579   96.7336   -3.0436 C.ar    1  UNL1        0.0332
     12 C          55.5189   96.1004   -2.8065 C.ar    1  UNL1       -0.0174
     13 C          54.3605   96.4400   -3.6969 C.3     1  UNL1        0.0312
     14 C          55.3383   95.1277   -1.6790 C.ar    1  UNL1        0.0149
     15 C          56.4966   94.7881   -0.7886 C.ar    1  UNL1        0.0811
     16 N          57.8357   95.4213   -1.0257 N.ar    1  UNL1       -0.2888
     17 C          61.5866   96.3381   -0.6318 C.ar    1  UNL1        0.0385
     18 C          61.9625   96.5984    0.7969 C.ar    1  UNL1        0.0079
     19 C          63.4044   96.7679    1.1741 C.ar    1  UNL1        0.0578
     20 C          64.4704   96.6772    0.1227 C.ar    1  UNL1        0.2250
     21 N          64.0945   96.4168   -1.3059 N.ar    1  UNL1       -0.2101
     22 C          62.6526   96.2473   -1.6831 C.ar    1  UNL1        0.1036
     23 O          65.9123   96.8467    0.4999 O.3     1  UNL1       -0.4561
     24 C          66.9699   96.8531   -0.5637 C.3     1  UNL1        0.2542
     25 C          59.1207   91.0581    5.1044 C.2     1  UNL1        0.2414
     26 O          57.7211   91.1980    4.5831 O.2     1  UNL1       -0.2733
     27 N          60.2464   91.7910    4.4369 N.am    1  UNL1       -0.2682
     28 H          61.1649   91.6992    4.7790 H       1  UNL1        0.1563
     29 C          59.3945   90.1854    6.2932 C.3     1  UNL1        0.1319
     30 C          60.4277   90.5935    7.3012 C.3     1  UNL1        0.0270
     31 C          58.9109   88.0304    7.6615 C.3     1  UNL1        0.0862
     32 N          58.6351   88.9045    6.4741 N.3     1  UNL1       -0.2902
     33 H          57.6463   89.1515    6.5137 H       1  UNL1        0.1237
     34 C          58.1171   92.4665   -0.2546 C.1     1  UNL1       -0.0404
     35 C          57.3263   91.9315   -1.4115 C.1     1  UNL1       -0.0583
     36 C          56.5355   91.3964   -2.5684 C.ar    1  UNL1        0.0420
     37 C          55.6691   90.1852   -2.3885 C.ar    1  UNL1        0.0083
     38 C          54.8783   89.6503   -3.5454 C.ar    1  UNL1        0.0018
     39 C          54.9539   90.3265   -4.8822 C.ar    1  UNL1        0.0137
     40 C          54.1630   89.7915   -6.0391 C.ar    1  UNL1        0.0594
     41 C          53.2967   88.5803   -5.8592 C.3     1  UNL1        0.0521
     42 N          54.2386   90.4678   -7.3759 N.ar    1  UNL1       -0.2481
     43 C          55.1050   91.6790   -7.5557 C.ar    1  UNL1        0.0984
     44 C          55.8958   92.2140   -6.3988 C.ar    1  UNL1        0.0207
     45 C          55.8202   91.5377   -5.0621 C.ar    1  UNL1        0.0033
     46 C          56.6110   92.0727   -3.9052 C.ar    1  UNL1        0.0083
@<TRIPOS>BOND
     1    31    32    1
     2    32    29    1
     3    29    30    1
     4    29    25    1
     5    25    26    2
     6    25    27   am
     7    27     1    1
     8     1     2   ar
     9     2     3   ar
    10     3     4   ar
    11     4     7    1
    12     7     8   ar
    13     8    17    1
    14    17    18   ar
    15    18    19   ar
    16    19    20   ar
    17    20    23    1
    18    23    24    1
    19    20    21   ar
    20    21    22   ar
    21     8     9   ar
    22     9    10   ar
    23    10    11   ar
    24    11    12   ar
    25    12    13    1
    26    12    14   ar
    27    14    15   ar
    28    15    16   ar
    29     4     5   ar
    30     5    34    1
    31    34    35    3
    32    35    36    1
    33    36    37   ar
    34    37    38   ar
    35    38    39   ar
    36    39    40   ar
    37    40    41    1
    38    40    42   ar
    39    42    43   ar
    40    43    44   ar
    41    44    45   ar
    42    45    46   ar
    43     5     6   ar
    44     6     1   ar
    45    16     7   ar
    46    46    36   ar
    47    22    17   ar
    48    16    10   ar
    49    45    39   ar
    50    32    33    1
    51    27    28    1
