@<TRIPOS>MOLECULE
*****
 35 39 0 0 0
SMALL
GASTEIGER

@<TRIPOS>ATOM
      1 C          63.3312   86.2040   10.2040 C.3     1  UNL1        0.0473
      2 C          63.0243   85.1157   11.1896 C.3     1  UNL1        0.1699
      3 O          62.5853   83.7210   10.8547 O.3     1  UNL1       -0.4521
      4 C          62.3921   82.9743   12.1412 C.2     1  UNL1        0.3217
      5 O          61.9500   81.5599   11.9090 O.2     1  UNL1       -0.2499
      6 C          62.7117   83.9075   13.2713 C.3     1  UNL1        0.1588
      7 C          62.6975   83.7232   14.7598 C.3     1  UNL1        0.0830
      8 C          63.0739   84.8623   15.6602 C.3     1  UNL1        0.2648
      9 F          63.3477   85.6349   16.9164 F       1  UNL1       -0.2043
     10 F          62.7783   83.8072   16.6847 F       1  UNL1       -0.2043
     11 C          63.4646   86.1856   15.0721 C.3     1  UNL1        0.0655
     12 C          63.8410   87.3248   15.9726 C.3     1  UNL1        0.0060
     13 C          63.4788   86.3701   13.5835 C.3     1  UNL1        0.0315
     14 C          63.1024   85.2310   12.6831 C.3     1  UNL1        0.0601
     15 C          62.3013   82.5338   13.7120 C.3     1  UNL1        0.3020
     16 N          63.2270   81.4179   14.0967 N.2     1  UNL1       -0.1365
     17 N          62.3909   80.2291   14.4678 N.am    1  UNL1       -0.0430
     18 C          60.9485   80.6102   14.3126 C.2     1  UNL1        0.4442
     19 O          59.7686   79.7228   14.5778 O.2     1  UNL1       -0.2225
     20 O          60.8931   82.0346   13.8454 O.3     1  UNL1       -0.4107
     21 C          63.8695   87.6935   12.9954 C.2     1  UNL1       -0.0246
     22 C          64.2253   88.8388   13.8963 C.2     1  UNL1        0.0145
     23 C          64.6160   90.1623   13.3082 C.ar    1  UNL1        0.0810
     24 C          63.9814   90.6330   12.0332 C.ar    1  UNL1        0.0191
     25 C          64.3721   91.9565   11.4449 C.ar    1  UNL1        0.0031
     26 C          65.3973   92.8091   12.1318 C.ar    1  UNL1        0.0193
     27 C          66.0320   92.3384   13.4069 C.ar    1  UNL1        0.0988
     28 N          65.6413   91.0149   13.9950 N.ar    1  UNL1       -0.2438
     29 C          65.7880   94.1326   11.5436 C.ar    1  UNL1        0.0037
     30 C          66.0505   95.3044   12.4423 C.ar    1  UNL1        0.0002
     31 C          66.4412   96.6279   11.8542 C.ar    1  UNL1        0.0023
     32 C          66.5694   96.7793   10.3674 C.ar    1  UNL1        0.0296
     33 C          66.3069   95.6075    9.4687 C.ar    1  UNL1        0.1401
     34 F          66.4350   95.7590    7.9819 F       1  UNL1       -0.2042
     35 C          65.9162   94.2840   10.0568 C.ar    1  UNL1        0.0297
@<TRIPOS>BOND
     1     2     1    1
     2     2     3    1
     3     3     4    1
     4     4     5    2
     5     4     6    1
     6     6    15    1
     7    15    16    1
     8    16    17    2
     9    17    18    1
    10    18    19    2
    11    18    20    1
    12     6     7    1
    13     7     8    1
    14     8     9    1
    15     8    10    1
    16     8    11    1
    17    11    12    1
    18    11    13    1
    19    13    21    1
    20    21    22    2
    21    22    23    1
    22    23    24   ar
    23    24    25   ar
    24    25    26   ar
    25    26    29    1
    26    29    30   ar
    27    30    31   ar
    28    31    32   ar
    29    32    33   ar
    30    33    34    1
    31    33    35   ar
    32    26    27   ar
    33    27    28   ar
    34    13    14    1
    35    14     2    1
    36    14     6    1
    37    20    15    1
    38    28    23   ar
    39    35    29   ar
@<TRIPOS>MOLECULE
*****
 35 39 0 0 0
SMALL
GASTEIGER

@<TRIPOS>ATOM
      1 C          58.6866   91.3725   -0.4285 C.3     1  UNL1        0.0473
      2 C          59.1062   92.4682   -1.3631 C.3     1  UNL1        0.1699
      3 O          58.5250   92.7417   -2.7186 O.3     1  UNL1       -0.4521
      4 C          59.2404   93.9253   -3.2995 C.2     1  UNL1        0.3217
      5 O          58.7262   94.2786   -4.6636 O.2     1  UNL1       -0.2499
      6 C          60.2637   94.3832   -2.3030 C.3     1  UNL1        0.1588
      7 C          61.2604   95.5039   -2.3308 C.3     1  UNL1        0.0830
      8 C          62.1741   95.7241   -1.1617 C.3     1  UNL1        0.2648
      9 F          63.2459   96.3301   -0.3051 F       1  UNL1       -0.2043
     10 F          62.6293   96.8351   -2.0609 F       1  UNL1       -0.2043
     11 C          62.0912   94.8236    0.0349 C.3     1  UNL1        0.0655
     12 C          63.0050   95.0438    1.2040 C.3     1  UNL1        0.0060
     13 C          61.0945   93.7029    0.0627 C.3     1  UNL1        0.0315
     14 C          60.1808   93.4827   -1.1063 C.3     1  UNL1        0.0601
     15 C          60.2309   95.1979   -3.5621 C.3     1  UNL1        0.3020
     16 N          59.2823   96.3206   -3.8613 N.2     1  UNL1       -0.1365
     17 N          59.6060   96.8495   -5.2272 N.am    1  UNL1       -0.0430
     18 C          60.7547   96.0536   -5.7721 C.2     1  UNL1        0.4442
     19 O          61.4034   96.2448   -7.1110 O.2     1  UNL1       -0.2225
     20 O          61.1409   95.0328   -4.7430 O.3     1  UNL1       -0.4107
     21 C          61.0117   92.8024    1.2595 C.2     1  UNL1       -0.0246
     22 C          60.0385   93.1052    2.3600 C.2     1  UNL1        0.0145
     23 C          59.9557   92.2047    3.5568 C.ar    1  UNL1        0.0810
     24 C          61.1858   91.5073    4.0571 C.ar    1  UNL1        0.0191
     25 C          61.1031   90.6067    5.2539 C.ar    1  UNL1        0.0031
     26 C          59.7902   90.4036    5.9503 C.ar    1  UNL1        0.0193
     27 C          58.5600   91.1010    5.4499 C.ar    1  UNL1        0.0988
     28 N          58.6428   92.0016    4.2532 N.ar    1  UNL1       -0.2438
     29 C          59.7074   89.5030    7.1470 C.ar    1  UNL1        0.0037
     30 C          59.1563   88.1153    7.0046 C.ar    1  UNL1        0.0002
     31 C          59.0736   87.2148    8.2013 C.ar    1  UNL1        0.0023
     32 C          59.5419   87.7020    9.5404 C.ar    1  UNL1        0.0296
     33 C          60.0930   89.0898    9.6829 C.ar    1  UNL1        0.1401
     34 F          60.5613   89.5771   11.0220 F       1  UNL1       -0.2042
     35 C          60.1757   89.9903    8.4862 C.ar    1  UNL1        0.0297
@<TRIPOS>BOND
     1     2     1    1
     2     2     3    1
     3     3     4    1
     4     4     5    2
     5     4     6    1
     6     6    15    1
     7    15    16    1
     8    16    17    2
     9    17    18    1
    10    18    19    2
    11    18    20    1
    12     6     7    1
    13     7     8    1
    14     8     9    1
    15     8    10    1
    16     8    11    1
    17    11    12    1
    18    11    13    1
    19    13    21    1
    20    21    22    2
    21    22    23    1
    22    23    24   ar
    23    24    25   ar
    24    25    26   ar
    25    26    29    1
    26    29    30   ar
    27    30    31   ar
    28    31    32   ar
    29    32    33   ar
    30    33    34    1
    31    33    35   ar
    32    26    27   ar
    33    27    28   ar
    34    13    14    1
    35    14     2    1
    36    14     6    1
    37    20    15    1
    38    28    23   ar
    39    35    29   ar
@<TRIPOS>MOLECULE
*****
 35 39 0 0 0
SMALL
GASTEIGER

@<TRIPOS>ATOM
      1 C          64.6128   88.1579   15.0286 C.3     1  UNL1        0.0473
      2 C          64.8797   89.4596   14.3327 C.3     1  UNL1        0.1699
      3 O          65.7953   90.5455   14.8147 O.3     1  UNL1       -0.4521
      4 C          65.7594   91.6610   13.8125 C.2     1  UNL1        0.3217
      5 O          66.6495   92.8014   14.2090 O.2     1  UNL1       -0.2499
      6 C          64.8216   91.2645   12.7110 C.3     1  UNL1        0.1588
      7 C          64.3924   91.9665   11.4569 C.3     1  UNL1        0.0830
      8 C          63.4196   91.3080   10.5242 C.3     1  UNL1        0.2648
      9 F          62.5280   91.0965    9.3366 F       1  UNL1       -0.2043
     10 F          63.6536   92.5951    9.7902 F       1  UNL1       -0.2043
     11 C          62.8759   89.9476   10.8457 C.3     1  UNL1        0.0655
     12 C          61.9030   89.2890    9.9129 C.3     1  UNL1        0.0060
     13 C          63.3050   89.2454   12.0999 C.3     1  UNL1        0.0315
     14 C          64.2779   89.9040   13.0325 C.3     1  UNL1        0.0601
     15 C          65.4469   92.6149   12.5233 C.3     1  UNL1        0.3020
     16 N          65.4908   93.7155   13.5415 N.2     1  UNL1       -0.1365
     17 N          66.2092   94.8827   12.9319 N.am    1  UNL1       -0.0430
     18 C          66.6093   94.5035   11.5369 C.2     1  UNL1        0.4442
     19 O          67.3503   95.3731   10.5650 O.2     1  UNL1       -0.2225
     20 O          66.1381   93.1019   11.2844 O.3     1  UNL1       -0.4107
     21 C          62.7613   87.8849   12.4213 C.2     1  UNL1       -0.0246
     22 C          63.6464   86.6787   12.3131 C.2     1  UNL1        0.0145
     23 C          63.1026   85.3182   12.6345 C.ar    1  UNL1        0.0810
     24 C          62.9805   84.2848   11.5542 C.ar    1  UNL1        0.0191
     25 C          62.4367   82.9243   11.8756 C.ar    1  UNL1        0.0031
     26 C          62.0149   82.5972   13.2774 C.ar    1  UNL1        0.0193
     27 C          62.1369   83.6306   14.3578 C.ar    1  UNL1        0.0988
     28 N          62.6808   84.9911   14.0364 N.ar    1  UNL1       -0.2438
     29 C          61.4711   81.2367   13.5988 C.ar    1  UNL1        0.0037
     30 C          62.3249   80.0204   13.3948 C.ar    1  UNL1        0.0002
     31 C          61.7811   78.6599   13.7163 C.ar    1  UNL1        0.0023
     32 C          60.3835   78.5158   14.2417 C.ar    1  UNL1        0.0296
     33 C          59.5297   79.7320   14.4456 C.ar    1  UNL1        0.1401
     34 F          58.1321   79.5879   14.9710 F       1  UNL1       -0.2042
     35 C          60.0735   81.0925   14.1242 C.ar    1  UNL1        0.0297
@<TRIPOS>BOND
     1     2     1    1
     2     2     3    1
     3     3     4    1
     4     4     5    2
     5     4     6    1
     6     6    15    1
     7    15    16    1
     8    16    17    2
     9    17    18    1
    10    18    19    2
    11    18    20    1
    12     6     7    1
    13     7     8    1
    14     8     9    1
    15     8    10    1
    16     8    11    1
    17    11    12    1
    18    11    13    1
    19    13    21    1
    20    21    22    2
    21    22    23    1
    22    23    24   ar
    23    24    25   ar
    24    25    26   ar
    25    26    29    1
    26    29    30   ar
    27    30    31   ar
    28    31    32   ar
    29    32    33   ar
    30    33    34    1
    31    33    35   ar
    32    26    27   ar
    33    27    28   ar
    34    13    14    1
    35    14     2    1
    36    14     6    1
    37    20    15    1
    38    28    23   ar
    39    35    29   ar
