@<TRIPOS>MOLECULE
*****
 37 42 0 0 0
SMALL
GASTEIGER

@<TRIPOS>ATOM
      1 C          63.5171   89.3807   13.3007 C.ar    1  UNL1        0.0447
      2 C          64.2912   89.5076   14.5792 C.ar    1  UNL1        0.0156
      3 C          64.7780   88.2777   15.2864 C.ar    1  UNL1        0.0159
      4 C          64.4908   86.9208   14.7150 C.ar    1  UNL1        0.0507
      5 C          63.7167   86.7939   13.4365 C.ar    1  UNL1        0.0193
      6 C          63.2299   88.0239   12.7293 C.ar    1  UNL1        0.0157
      7 C          63.5872   85.3343   13.1160 C.2     1  UNL1        0.0623
      8 C          62.8866   84.7521   11.9243 C.2     1  UNL1        0.0928
      9 C          64.2811   84.5591   14.1965 C.2     1  UNL1        0.2498
     10 O          64.3964   83.0655   14.2749 O.2     1  UNL1       -0.2698
     11 N          64.8396   85.5396   15.1848 N.am    1  UNL1       -0.2804
     12 H          65.3462   85.3159   15.9988 H       1  UNL1        0.1552
     13 C          62.8383   83.2649   11.7352 C.2     1  UNL1        0.3754
     14 N          63.1515   82.5267   10.4675 N.2     1  UNL1       -0.0308
     15 C          62.9752   81.0602   10.7294 C.2     1  UNL1        0.2321
     16 C          63.1445   79.8563    9.8509 C.2     1  UNL1        0.0498
     17 C          62.8916   78.4842   10.4018 C.2     1  UNL1       -0.0002
     18 C          62.4695   78.3161   11.8314 C.2     1  UNL1       -0.0172
     19 C          62.3002   79.5202   12.7100 C.3     1  UNL1        0.1037
     20 C          62.5531   80.8922   12.1590 C.2     1  UNL1        0.2178
     21 N          62.4685   82.2547   12.7806 N.2     1  UNL1       -0.0347
     22 C          62.2342   85.6571   10.9216 C.ar    1  UNL1        0.0076
     23 C          62.7340   85.6941    9.5078 C.ar    1  UNL1        0.0003
     24 C          62.0817   86.5991    8.5051 C.ar    1  UNL1        0.0000
     25 C          60.9295   87.4671    8.9161 C.ar    1  UNL1        0.0000
     26 C          60.4297   87.4302   10.3299 C.ar    1  UNL1        0.0000
     27 C          61.0820   86.5251   11.3327 C.ar    1  UNL1        0.0003
     28 N          63.0303   90.6107   12.5934 N.pl3   1  UNL1       -0.3339
     29 H          62.0643   90.7647   12.4821 H       1  UNL1        0.1468
     30 N          65.9851   93.5968   10.9802 N.3     1  UNL1       -0.2726
     31 C          64.9532   92.9969   10.0718 C.3     1  UNL1        0.0738
     32 C          63.9682   92.0015   10.6095 C.3     1  UNL1        0.0368
     33 C          64.0152   91.6060   12.0557 C.3     1  UNL1        0.0718
     34 C          65.0472   92.2059   12.9641 C.3     1  UNL1        0.0368
     35 C          66.0321   93.2013   12.4264 C.3     1  UNL1        0.0738
     36 C          67.8663   94.2179    9.2993 C.3     1  UNL1        0.0188
     37 C          66.9700   94.5921   10.4425 C.3     1  UNL1        0.0721
@<TRIPOS>BOND
     1    36    37    1
     2    37    30    1
     3    30    31    1
     4    31    32    1
     5    32    33    1
     6    33    28    1
     7    28     1    1
     8     1     2   ar
     9     2     3   ar
    10     3     4   ar
    11     4     5   ar
    12     5     6   ar
    13     5     7    1
    14     7     8    2
    15     8    22    1
    16    22    23   ar
    17    23    24   ar
    18    24    25   ar
    19    25    26   ar
    20    26    27   ar
    21     8    13    1
    22    13    14    2
    23    14    15    1
    24    15    16    2
    25    16    17    1
    26    17    18    2
    27    18    19    1
    28    19    20    1
    29    20    21    2
    30     7     9    1
    31     9    10    2
    32     9    11   am
    33    33    34    1
    34    34    35    1
    35    35    30    1
    36     6     1   ar
    37    27    22   ar
    38    21    13    1
    39    11     4    1
    40    20    15    1
    41    28    29    1
    42    11    12    1
@<TRIPOS>MOLECULE
*****
 37 42 0 0 0
SMALL
GASTEIGER

@<TRIPOS>ATOM
      1 C          62.7325   89.7362   12.8548 C.ar    1  UNL1        0.0447
      2 C          62.4652   90.4308   11.5525 C.ar    1  UNL1        0.0156
      3 C          62.2759   89.6283   10.2996 C.ar    1  UNL1        0.0159
      4 C          62.3538   88.1311   10.3489 C.ar    1  UNL1        0.0507
      5 C          62.6211   87.4365   11.6512 C.ar    1  UNL1        0.0193
      6 C          62.8104   88.2390   12.9042 C.ar    1  UNL1        0.0157
      7 C          62.6425   85.9591   11.3926 C.2     1  UNL1        0.0623
      8 C          62.8768   84.8882   12.4165 C.2     1  UNL1        0.0928
      9 C          62.3884   85.7406    9.9305 C.2     1  UNL1        0.2498
     10 O          62.3241   84.4128    9.2355 O.2     1  UNL1       -0.2698
     11 N          62.2100   87.0830    9.2854 N.am    1  UNL1       -0.2804
     12 H          62.0301   87.2473    8.3315 H       1  UNL1        0.1552
     13 C          62.8694   83.4451   12.0075 C.2     1  UNL1        0.3754
     14 N          62.4996   82.2830   12.8809 N.2     1  UNL1       -0.0308
     15 C          62.6322   81.0303   12.0664 C.2     1  UNL1        0.2321
     16 C          62.3999   79.5866   12.4006 C.2     1  UNL1        0.0498
     17 C          62.6195   78.5307   11.3581 C.2     1  UNL1       -0.0002
     18 C          63.0713   78.9186    9.9813 C.2     1  UNL1       -0.0172
     19 C          63.3036   80.3624    9.6471 C.3     1  UNL1        0.1037
     20 C          63.0841   81.4183   10.6897 C.2     1  UNL1        0.2178
     21 N          63.2307   82.9106   10.6533 N.2     1  UNL1       -0.0347
     22 C          63.1184   85.2604   13.8493 C.ar    1  UNL1        0.0076
     23 C          62.1118   84.8941   14.8994 C.ar    1  UNL1        0.0003
     24 C          62.3534   85.2663   16.3322 C.ar    1  UNL1        0.0000
     25 C          63.6016   86.0046   16.7151 C.ar    1  UNL1        0.0000
     26 C          64.6083   86.3709   15.6651 C.ar    1  UNL1        0.0000
     27 C          64.3667   85.9987   14.2322 C.ar    1  UNL1        0.0003
     28 N          62.9218   90.5387   14.1079 N.pl3   1  UNL1       -0.3339
     29 H          62.1894   90.6105   14.7619 H       1  UNL1        0.1468
     30 N          66.8375   92.6182   14.8780 N.3     1  UNL1       -0.2726
     31 C          66.4715   92.2006   13.4846 C.3     1  UNL1        0.0738
     32 C          65.1662   91.5074   13.2279 C.3     1  UNL1        0.0368
     33 C          64.2270   91.2319   14.3646 C.3     1  UNL1        0.0718
     34 C          64.5932   91.6495   15.7580 C.3     1  UNL1        0.0368
     35 C          65.8984   92.3426   16.0147 C.3     1  UNL1        0.0738
     36 C          69.1067   92.7482   16.1366 C.3     1  UNL1        0.0188
     37 C          68.1428   93.3113   15.1346 C.3     1  UNL1        0.0721
@<TRIPOS>BOND
     1    36    37    1
     2    37    30    1
     3    30    31    1
     4    31    32    1
     5    32    33    1
     6    33    28    1
     7    28     1    1
     8     1     2   ar
     9     2     3   ar
    10     3     4   ar
    11     4     5   ar
    12     5     6   ar
    13     5     7    1
    14     7     8    2
    15     8    22    1
    16    22    23   ar
    17    23    24   ar
    18    24    25   ar
    19    25    26   ar
    20    26    27   ar
    21     8    13    1
    22    13    14    2
    23    14    15    1
    24    15    16    2
    25    16    17    1
    26    17    18    2
    27    18    19    1
    28    19    20    1
    29    20    21    2
    30     7     9    1
    31     9    10    2
    32     9    11   am
    33    33    34    1
    34    34    35    1
    35    35    30    1
    36     6     1   ar
    37    27    22   ar
    38    21    13    1
    39    11     4    1
    40    20    15    1
    41    28    29    1
    42    11    12    1
@<TRIPOS>MOLECULE
*****
 37 42 0 0 0
SMALL
GASTEIGER

@<TRIPOS>ATOM
      1 C          61.5990   88.1999   11.1976 C.ar    1  UNL1        0.0447
      2 C          61.3200   88.8563    9.8781 C.ar    1  UNL1        0.0156
      3 C          62.0598   90.1016    9.4886 C.ar    1  UNL1        0.0159
      4 C          63.0787   90.6905   10.4187 C.ar    1  UNL1        0.0507
      5 C          63.3578   90.0341   11.7382 C.ar    1  UNL1        0.0193
      6 C          62.6179   88.7888   12.1277 C.ar    1  UNL1        0.0157
      7 C          64.4097   90.8385   12.4428 C.2     1  UNL1        0.0623
      8 C          64.9888   90.5415   13.7942 C.2     1  UNL1        0.0928
      9 C          64.7808   91.9920   11.5586 C.2     1  UNL1        0.2498
     10 O          65.7963   93.0511   11.8708 O.2     1  UNL1       -0.2698
     11 N          63.9583   91.9006   10.3077 N.am    1  UNL1       -0.2804
     12 H          63.9900   92.5251    9.5473 H       1  UNL1        0.1552
     13 C          66.0401   91.4408   14.3738 C.2     1  UNL1        0.3754
     14 N          66.0017   92.9401   14.3988 N.2     1  UNL1       -0.0308
     15 C          67.2522   93.4248   15.0707 C.2     1  UNL1        0.2321
     16 C          67.7570   94.8035   15.3776 C.2     1  UNL1        0.0498
     17 C          69.0730   94.9825   16.0747 C.2     1  UNL1       -0.0002
     18 C          69.8843   93.7827   16.4649 C.2     1  UNL1       -0.0172
     19 C          69.3795   92.4038   16.1580 C.3     1  UNL1        0.1037
     20 C          68.0635   92.2249   15.4609 C.2     1  UNL1        0.2178
     21 N          67.3144   90.9988   15.0302 N.2     1  UNL1       -0.0347
     22 C          64.5168   89.3451   14.5660 C.ar    1  UNL1        0.0076
     23 C          64.9999   87.9744   14.1945 C.ar    1  UNL1        0.0003
     24 C          64.5278   86.7780   14.9662 C.ar    1  UNL1        0.0000
     25 C          63.5727   86.9521   16.1097 C.ar    1  UNL1        0.0000
     26 C          63.0896   88.3227   16.4813 C.ar    1  UNL1        0.0000
     27 C          63.5617   89.5192   15.7094 C.ar    1  UNL1        0.0003
     28 N          60.8591   86.9545   11.5872 N.pl3   1  UNL1       -0.3339
     29 H          59.8796   86.9739   11.6840 H       1  UNL1        0.1468
     30 N          63.1168   83.1302   12.3133 N.3     1  UNL1       -0.2726
     31 C          62.6599   83.9633   13.4740 C.3     1  UNL1        0.0738
     32 C          61.9073   85.2382   13.2320 C.3     1  UNL1        0.0368
     33 C          61.6117   85.6798   11.8293 C.3     1  UNL1        0.0718
     34 C          62.0686   84.8466   10.6686 C.3     1  UNL1        0.0368
     35 C          62.8211   83.5718   10.9106 C.3     1  UNL1        0.0738
     36 C          63.3227   80.8304   13.5044 C.3     1  UNL1        0.0188
     37 C          63.8694   81.8555   12.5554 C.3     1  UNL1        0.0721
@<TRIPOS>BOND
     1    36    37    1
     2    37    30    1
     3    30    31    1
     4    31    32    1
     5    32    33    1
     6    33    28    1
     7    28     1    1
     8     1     2   ar
     9     2     3   ar
    10     3     4   ar
    11     4     5   ar
    12     5     6   ar
    13     5     7    1
    14     7     8    2
    15     8    22    1
    16    22    23   ar
    17    23    24   ar
    18    24    25   ar
    19    25    26   ar
    20    26    27   ar
    21     8    13    1
    22    13    14    2
    23    14    15    1
    24    15    16    2
    25    16    17    1
    26    17    18    2
    27    18    19    1
    28    19    20    1
    29    20    21    2
    30     7     9    1
    31     9    10    2
    32     9    11   am
    33    33    34    1
    34    34    35    1
    35    35    30    1
    36     6     1   ar
    37    27    22   ar
    38    21    13    1
    39    11     4    1
    40    20    15    1
    41    28    29    1
    42    11    12    1
@<TRIPOS>MOLECULE
*****
 37 42 0 0 0
SMALL
GASTEIGER

@<TRIPOS>ATOM
      1 C          63.9359   90.5998   12.5298 C.ar    1  UNL1        0.0447
      2 C          64.7125   90.9898   13.7524 C.ar    1  UNL1        0.0156
      3 C          65.0660   89.9542   14.7783 C.ar    1  UNL1        0.0159
      4 C          64.6430   88.5286   14.5817 C.ar    1  UNL1        0.0507
      5 C          63.8664   88.1386   13.3591 C.ar    1  UNL1        0.0193
      6 C          63.5129   89.1742   12.3332 C.ar    1  UNL1        0.0157
      7 C          63.5883   86.6666   13.4366 C.2     1  UNL1        0.0623
      8 C          62.8373   85.8566   12.4218 C.2     1  UNL1        0.0928
      9 C          64.1930   86.1469   14.7072 C.2     1  UNL1        0.2498
     10 O          64.1529   84.7259   15.1859 O.2     1  UNL1       -0.2698
     11 N          64.8449   87.2977   15.4149 N.am    1  UNL1       -0.2804
     12 H          65.3215   87.2530   16.2751 H       1  UNL1        0.1552
     13 C          62.6366   84.3856   12.6359 C.2     1  UNL1        0.3754
     14 N          61.8672   83.7549   13.7585 N.2     1  UNL1       -0.0308
     15 C          61.9252   82.2665   13.5814 C.2     1  UNL1        0.2321
     16 C          61.3488   81.1371   14.3828 C.2     1  UNL1        0.0498
     17 C          61.5775   79.7186   13.9522 C.2     1  UNL1       -0.0002
     18 C          62.3827   79.4295   12.7201 C.2     1  UNL1       -0.0172
     19 C          62.9591   80.5589   11.9186 C.3     1  UNL1        0.1037
     20 C          62.7304   81.9774   12.3492 C.2     1  UNL1        0.2178
     21 N          63.1700   83.2871   11.7649 N.2     1  UNL1       -0.0347
     22 C          62.2870   86.5175   11.1929 C.ar    1  UNL1        0.0076
     23 C          61.2699   87.6125   11.3218 C.ar    1  UNL1        0.0003
     24 C          60.7196   88.2735   10.0929 C.ar    1  UNL1        0.0000
     25 C          61.1863   87.8395    8.7350 C.ar    1  UNL1        0.0000
     26 C          62.2033   86.7446    8.6060 C.ar    1  UNL1        0.0000
     27 C          62.7537   86.0836    9.8350 C.ar    1  UNL1        0.0003
     28 N          63.5823   91.6354   11.5039 N.pl3   1  UNL1       -0.3339
     29 H          62.6463   91.7478   11.2202 H       1  UNL1        0.1468
     30 N          66.8000   94.2284    9.7226 N.3     1  UNL1       -0.2726
     31 C          65.4683   94.8217   10.0754 C.3     1  UNL1        0.0738
     32 C          64.3956   93.9574   10.6692 C.3     1  UNL1        0.0368
     33 C          64.6548   92.4997   10.9101 C.3     1  UNL1        0.0718
     34 C          65.9866   91.9064   10.5573 C.3     1  UNL1        0.0368
     35 C          67.0591   92.7707    9.9636 C.3     1  UNL1        0.0738
     36 C          67.5235   96.4354    8.5583 C.3     1  UNL1        0.0188
     37 C          67.8725   95.0927    9.1289 C.3     1  UNL1        0.0721
@<TRIPOS>BOND
     1    36    37    1
     2    37    30    1
     3    30    31    1
     4    31    32    1
     5    32    33    1
     6    33    28    1
     7    28     1    1
     8     1     2   ar
     9     2     3   ar
    10     3     4   ar
    11     4     5   ar
    12     5     6   ar
    13     5     7    1
    14     7     8    2
    15     8    22    1
    16    22    23   ar
    17    23    24   ar
    18    24    25   ar
    19    25    26   ar
    20    26    27   ar
    21     8    13    1
    22    13    14    2
    23    14    15    1
    24    15    16    2
    25    16    17    1
    26    17    18    2
    27    18    19    1
    28    19    20    1
    29    20    21    2
    30     7     9    1
    31     9    10    2
    32     9    11   am
    33    33    34    1
    34    34    35    1
    35    35    30    1
    36     6     1   ar
    37    27    22   ar
    38    21    13    1
    39    11     4    1
    40    20    15    1
    41    28    29    1
    42    11    12    1
