@<TRIPOS>MOLECULE
*****
 35 37 0 0 0
SMALL
GASTEIGER

@<TRIPOS>ATOM
      1 C          65.7443   93.8800   11.3918 C.ar    1  UNL1        0.0696
      2 C          64.6575   92.9609   10.9188 C.ar    1  UNL1        0.0057
      3 C          64.2419   91.7934   11.7640 C.ar    1  UNL1       -0.0041
      4 C          64.9132   91.5451   13.0821 C.ar    1  UNL1       -0.0185
      5 C          66.0000   92.4642   13.5552 C.ar    1  UNL1        0.0677
      6 C          66.4156   93.6317   12.7100 C.ar    1  UNL1        0.0095
      7 C          64.4976   90.3776   13.9273 C.3     1  UNL1        0.0257
      8 C          64.5203   88.9914   13.3547 C.3     1  UNL1        0.0259
      9 C          64.1048   87.8239   14.1998 C.3     1  UNL1        0.0940
     10 N          63.6665   88.0426   15.6176 N.am    1  UNL1       -0.2761
     11 C          63.2509   86.8751   16.4627 C.2     1  UNL1        0.2490
     12 O          62.8127   87.0938   17.8805 O.2     1  UNL1       -0.2699
     13 C          63.6438   89.4288   16.1902 C.3     1  UNL1        0.0940
     14 C          64.0594   90.5963   15.3450 C.3     1  UNL1        0.0259
     15 C          63.2736   85.4889   15.8901 C.ar    1  UNL1        0.0537
     16 C          61.9999   84.7056   15.7712 C.ar    1  UNL1        0.0068
     17 C          62.0226   83.3194   15.1986 C.ar    1  UNL1        0.0298
     18 C          63.3189   82.7165   14.7449 C.ar    1  UNL1        0.1401
     19 F          63.3416   81.3302   14.1723 F       1  UNL1       -0.2042
     20 C          64.5926   83.4997   14.8638 C.ar    1  UNL1        0.0298
     21 C          64.5700   84.8860   15.4364 C.ar    1  UNL1        0.0068
     22 N          66.1861   94.9201    9.0524 N.am    1  UNL1       -0.1708
     23 C          66.1599   95.0475   10.5467 C.2     1  UNL1        0.3078
     24 O          66.5492   96.3425   11.1959 O.2     1  UNL1       -0.2516
     25 H          65.9306   94.0701    8.6263 H       1  UNL1        0.2545
     26 N          65.7224   96.5509    7.0838 N.pl3   1  UNL1       -0.1313
     27 C          66.6017   96.0876    8.2072 C.2     1  UNL1        0.3751
     28 N          67.8966   96.7917    8.4856 N.pl3   1  UNL1       -0.2906
     29 H          65.9952   97.3171    6.5291 H       1  UNL1        0.3060
     30 H          68.1694   97.5580    7.9309 H       1  UNL1        0.2545
     31 H          68.4737   96.4876    9.2230 H       1  UNL1        0.2545
     32 C          66.6714   92.2160   14.8734 C.3     1  UNL1        0.4183
     33 F          67.3427   91.9677   16.1916 F       1  UNL1       -0.1659
     34 F          65.7435   93.1944   15.5304 F       1  UNL1       -0.1659
     35 F          67.5994   91.2376   14.2165 F       1  UNL1       -0.1659
@<TRIPOS>BOND
     1    26    27    2
     2    27    28    1
     3    27    22    1
     4    22    23   am
     5    23    24    2
     6    23     1    1
     7     1     2   ar
     8     2     3   ar
     9     3     4   ar
    10     4     7    1
    11     7     8    1
    12     8     9    1
    13     9    10    1
    14    10    11   am
    15    11    12    2
    16    11    15    1
    17    15    16   ar
    18    16    17   ar
    19    17    18   ar
    20    18    19    1
    21    18    20   ar
    22    20    21   ar
    23    10    13    1
    24    13    14    1
    25     4     5   ar
    26     5    32    1
    27    32    33    1
    28    32    34    1
    29    32    35    1
    30     5     6   ar
    31     6     1   ar
    32    14     7    1
    33    21    15   ar
    34    26    29    1
    35    28    30    1
    36    28    31    1
    37    22    25    1
@<TRIPOS>MOLECULE
*****
 35 37 0 0 0
SMALL
GASTEIGER

@<TRIPOS>ATOM
      1 C          65.4526   92.4315   13.1362 C.ar    1  UNL1        0.0696
      2 C          66.2333   91.6898   14.1804 C.ar    1  UNL1        0.0057
      3 C          65.8078   90.3134   14.5982 C.ar    1  UNL1       -0.0041
      4 C          64.6016   89.6788   13.9719 C.ar    1  UNL1       -0.0185
      5 C          63.8209   90.4205   12.9277 C.ar    1  UNL1        0.0677
      6 C          64.2465   91.7969   12.5098 C.ar    1  UNL1        0.0095
      7 C          64.1761   88.3024   14.3897 C.3     1  UNL1        0.0257
      8 C          64.1365   87.1916   13.3826 C.3     1  UNL1        0.0259
      9 C          63.7110   85.8152   13.8005 C.3     1  UNL1        0.0940
     10 N          63.3251   85.5497   15.2254 N.am    1  UNL1       -0.2761
     11 C          62.8995   84.1734   15.6433 C.2     1  UNL1        0.2490
     12 O          62.5136   83.9079   17.0682 O.2     1  UNL1       -0.2699
     13 C          63.3647   86.6606   16.2325 C.3     1  UNL1        0.0940
     14 C          63.7902   88.0370   15.8147 C.3     1  UNL1        0.0259
     15 C          62.8599   83.0625   14.6362 C.ar    1  UNL1        0.0537
     16 C          64.0312   82.8314   13.7279 C.ar    1  UNL1        0.0068
     17 C          63.9916   81.7206   12.7208 C.ar    1  UNL1        0.0298
     18 C          62.7808   80.8407   12.6219 C.ar    1  UNL1        0.1401
     19 F          62.7412   79.7297   11.6147 F       1  UNL1       -0.2042
     20 C          61.6096   81.0717   13.5301 C.ar    1  UNL1        0.0298
     21 C          61.6491   82.1826   14.5372 C.ar    1  UNL1        0.0068
     22 N          65.6757   94.2577   11.3018 N.am    1  UNL1       -0.1708
     23 C          65.8781   93.8078   12.7183 C.2     1  UNL1        0.3078
     24 O          66.5060   94.7343   13.7170 O.2     1  UNL1       -0.2516
     25 H          65.2636   93.6497   10.6463 H       1  UNL1        0.2545
     26 N          65.6489   96.8296   11.6688 N.pl3   1  UNL1       -0.1313
     27 C          66.1013   95.6341   10.8840 C.2     1  UNL1        0.3751
     28 N          66.9792   95.8149    9.6812 N.pl3   1  UNL1       -0.2906
     29 H          65.9282   97.7330   11.3946 H       1  UNL1        0.3060
     30 H          67.2585   96.7182    9.4069 H       1  UNL1        0.2545
     31 H          67.2761   95.0302    9.1660 H       1  UNL1        0.2545
     32 C          62.6147   89.7859   12.3013 C.3     1  UNL1        0.4183
     33 F          61.4085   89.1513   11.6749 F       1  UNL1       -0.1659
     34 F          63.4021   89.5223   11.0520 F       1  UNL1       -0.1659
     35 F          61.8274   90.0494   13.5505 F       1  UNL1       -0.1659
@<TRIPOS>BOND
     1    26    27    2
     2    27    28    1
     3    27    22    1
     4    22    23   am
     5    23    24    2
     6    23     1    1
     7     1     2   ar
     8     2     3   ar
     9     3     4   ar
    10     4     7    1
    11     7     8    1
    12     8     9    1
    13     9    10    1
    14    10    11   am
    15    11    12    2
    16    11    15    1
    17    15    16   ar
    18    16    17   ar
    19    17    18   ar
    20    18    19    1
    21    18    20   ar
    22    20    21   ar
    23    10    13    1
    24    13    14    1
    25     4     5   ar
    26     5    32    1
    27    32    33    1
    28    32    34    1
    29    32    35    1
    30     5     6   ar
    31     6     1   ar
    32    14     7    1
    33    21    15   ar
    34    26    29    1
    35    28    30    1
    36    28    31    1
    37    22    25    1
@<TRIPOS>MOLECULE
*****
 35 37 0 0 0
SMALL
GASTEIGER

@<TRIPOS>ATOM
      1 C          65.5885   93.5705   11.6640 C.ar    1  UNL1        0.0696
      2 C          66.2612   93.2657   12.9696 C.ar    1  UNL1        0.0057
      3 C          65.8553   92.0558   13.7579 C.ar    1  UNL1       -0.0041
      4 C          64.7768   91.1507   13.2406 C.ar    1  UNL1       -0.0185
      5 C          64.1041   91.4556   11.9350 C.ar    1  UNL1        0.0677
      6 C          64.5100   92.6655   11.1467 C.ar    1  UNL1        0.0095
      7 C          64.3709   89.9409   14.0289 C.3     1  UNL1        0.0257
      8 C          64.4056   88.5837   13.3910 C.3     1  UNL1        0.0259
      9 C          63.9997   87.3739   14.1793 C.3     1  UNL1        0.0940
     10 N          63.5591   87.5211   15.6055 N.am    1  UNL1       -0.2761
     11 C          63.1532   86.3112   16.3938 C.2     1  UNL1        0.2490
     12 O          62.7125   86.4584   17.8200 O.2     1  UNL1       -0.2699
     13 C          63.5243   88.8782   16.2434 C.3     1  UNL1        0.0940
     14 C          63.9302   90.0881   15.4551 C.3     1  UNL1        0.0259
     15 C          63.1879   84.9541   15.7559 C.ar    1  UNL1        0.0537
     16 C          61.9080   84.2225   15.4790 C.ar    1  UNL1        0.0068
     17 C          61.9427   82.8654   14.8411 C.ar    1  UNL1        0.0298
     18 C          63.2574   82.2398   14.4801 C.ar    1  UNL1        0.1401
     19 F          63.2921   80.8826   13.8422 F       1  UNL1       -0.2042
     20 C          64.5373   82.9713   14.7571 C.ar    1  UNL1        0.0298
     21 C          64.5026   84.3285   15.3950 C.ar    1  UNL1        0.0068
     22 N          66.2073   94.6739    9.3947 N.am    1  UNL1       -0.1708
     23 C          65.9944   94.7804   10.8757 C.2     1  UNL1        0.3078
     24 O          66.1875   96.0968   11.5683 O.2     1  UNL1       -0.2516
     25 H          66.0805   93.8099    8.9401 H       1  UNL1        0.2545
     26 N          65.8611   96.2558    7.3630 N.pl3   1  UNL1       -0.1313
     27 C          66.6132   95.8838    8.6064 C.2     1  UNL1        0.3751
     28 N          67.7712   96.7217    9.0615 N.pl3   1  UNL1       -0.2906
     29 H          66.1276   97.0499    6.8457 H       1  UNL1        0.3060
     30 H          68.0376   97.5158    8.5442 H       1  UNL1        0.2545
     31 H          68.2647   96.4775    9.8776 H       1  UNL1        0.2545
     32 C          63.0255   90.5506   11.4177 C.3     1  UNL1        0.4183
     33 F          61.9470   89.6455   10.9004 F       1  UNL1       -0.1659
     34 F          62.1841   90.8669   12.6185 F       1  UNL1       -0.1659
     35 F          63.8669   90.2342   10.2169 F       1  UNL1       -0.1659
@<TRIPOS>BOND
     1    26    27    2
     2    27    28    1
     3    27    22    1
     4    22    23   am
     5    23    24    2
     6    23     1    1
     7     1     2   ar
     8     2     3   ar
     9     3     4   ar
    10     4     7    1
    11     7     8    1
    12     8     9    1
    13     9    10    1
    14    10    11   am
    15    11    12    2
    16    11    15    1
    17    15    16   ar
    18    16    17   ar
    19    17    18   ar
    20    18    19    1
    21    18    20   ar
    22    20    21   ar
    23    10    13    1
    24    13    14    1
    25     4     5   ar
    26     5    32    1
    27    32    33    1
    28    32    34    1
    29    32    35    1
    30     5     6   ar
    31     6     1   ar
    32    14     7    1
    33    21    15   ar
    34    26    29    1
    35    28    30    1
    36    28    31    1
    37    22    25    1
@<TRIPOS>MOLECULE
*****
 35 37 0 0 0
SMALL
GASTEIGER

@<TRIPOS>ATOM
      1 C          59.3951   89.5629    7.1086 C.ar    1  UNL1        0.0696
      2 C          59.4697   88.0682    7.0074 C.ar    1  UNL1        0.0057
      3 C          60.1672   87.2781    8.0747 C.ar    1  UNL1       -0.0041
      4 C          60.7902   87.9827    9.2432 C.ar    1  UNL1       -0.0185
      5 C          60.7157   89.4773    9.3443 C.ar    1  UNL1        0.0677
      6 C          60.0181   90.2675    8.2770 C.ar    1  UNL1        0.0095
      7 C          61.4878   87.1925   10.3105 C.3     1  UNL1        0.0257
      8 C          61.2524   85.7156   10.4249 C.3     1  UNL1        0.0259
      9 C          61.9500   84.9254   11.4922 C.3     1  UNL1        0.0940
     10 N          62.8828   85.6123   12.4450 N.am    1  UNL1       -0.2761
     11 C          63.5804   84.8221   13.5123 C.2     1  UNL1        0.2490
     12 O          64.5132   85.5090   14.4652 O.2     1  UNL1       -0.2699
     13 C          63.1182   87.0892   12.3306 C.3     1  UNL1        0.0940
     14 C          62.4206   87.8794   11.2633 C.3     1  UNL1        0.0259
     15 C          63.3451   83.3452   13.6268 C.ar    1  UNL1        0.0537
     16 C          64.2706   82.3830   12.9428 C.ar    1  UNL1        0.0068
     17 C          64.0353   80.9060   13.0573 C.ar    1  UNL1        0.0298
     18 C          62.8745   80.3911   13.8556 C.ar    1  UNL1        0.1401
     19 F          62.6392   78.9141   13.9700 F       1  UNL1       -0.2042
     20 C          61.9490   81.3532   14.5396 C.ar    1  UNL1        0.0298
     21 C          62.1842   82.8303   14.4251 C.ar    1  UNL1        0.0068
     22 N          59.4672   91.3407    5.2154 N.am    1  UNL1       -0.1708
     23 C          58.6976   90.3531    6.0413 C.2     1  UNL1        0.3078
     24 O          57.2304   90.1555    5.7999 O.2     1  UNL1       -0.2516
     25 H          60.4302   91.4703    5.3738 H       1  UNL1        0.2545
     26 N          57.2835   92.0165    3.9807 N.pl3   1  UNL1       -0.1313
     27 C          58.7697   92.1308    4.1481 C.2     1  UNL1        0.3751
     28 N          59.5584   93.0353    3.2481 N.pl3   1  UNL1       -0.2906
     29 H          56.8257   92.5351    3.2802 H       1  UNL1        0.3060
     30 H          59.1006   93.5539    2.5476 H       1  UNL1        0.2545
     31 H          60.5339   93.1103    3.3579 H       1  UNL1        0.2545
     32 C          61.3387   90.1820   10.5129 C.3     1  UNL1        0.4183
     33 F          61.9617   90.8866   11.6813 F       1  UNL1       -0.1659
     34 F          60.0732   90.0002   11.2973 F       1  UNL1       -0.1659
     35 F          62.6042   90.3638    9.7285 F       1  UNL1       -0.1659
@<TRIPOS>BOND
     1    26    27    2
     2    27    28    1
     3    27    22    1
     4    22    23   am
     5    23    24    2
     6    23     1    1
     7     1     2   ar
     8     2     3   ar
     9     3     4   ar
    10     4     7    1
    11     7     8    1
    12     8     9    1
    13     9    10    1
    14    10    11   am
    15    11    12    2
    16    11    15    1
    17    15    16   ar
    18    16    17   ar
    19    17    18   ar
    20    18    19    1
    21    18    20   ar
    22    20    21   ar
    23    10    13    1
    24    13    14    1
    25     4     5   ar
    26     5    32    1
    27    32    33    1
    28    32    34    1
    29    32    35    1
    30     5     6   ar
    31     6     1   ar
    32    14     7    1
    33    21    15   ar
    34    26    29    1
    35    28    30    1
    36    28    31    1
    37    22    25    1
@<TRIPOS>MOLECULE
*****
 35 37 0 0 0
SMALL
GASTEIGER

@<TRIPOS>ATOM
      1 C          60.3751   91.3112    4.5361 C.ar    1  UNL1        0.0696
      2 C          61.8313   91.0201    4.3252 C.ar    1  UNL1        0.0057
      3 C          62.5975   91.7557    3.2661 C.ar    1  UNL1       -0.0041
      4 C          61.9074   92.7824    2.4177 C.ar    1  UNL1       -0.0185
      5 C          60.4512   93.0734    2.6285 C.ar    1  UNL1        0.0677
      6 C          59.6850   92.3378    3.6877 C.ar    1  UNL1        0.0095
      7 C          62.6736   93.5180    1.3586 C.3     1  UNL1        0.0257
      8 C          62.2480   93.4241   -0.0767 C.3     1  UNL1        0.0259
      9 C          63.0142   94.1597   -1.1359 C.3     1  UNL1        0.0940
     10 N          64.2060   94.9892   -0.7598 N.am    1  UNL1       -0.2761
     11 C          64.9722   95.7248   -1.8190 C.2     1  UNL1        0.2490
     12 O          66.1640   96.5543   -1.4429 O.2     1  UNL1       -0.2699
     13 C          64.6316   95.0831    0.6755 C.3     1  UNL1        0.0940
     14 C          63.8654   94.3475    1.7346 C.3     1  UNL1        0.0259
     15 C          64.5466   95.6309   -3.2542 C.ar    1  UNL1        0.0537
     16 C          64.6002   94.3125   -3.9677 C.ar    1  UNL1        0.0068
     17 C          64.1746   94.2187   -5.4030 C.ar    1  UNL1        0.0298
     18 C          63.6953   95.4431   -6.1248 C.ar    1  UNL1        0.1401
     19 F          63.2697   95.3492   -7.5601 F       1  UNL1       -0.2042
     20 C          63.6416   96.7615   -5.4113 C.ar    1  UNL1        0.0298
     21 C          64.0673   96.8554   -3.9760 C.ar    1  UNL1        0.0068
     22 N          60.3406   89.7675    6.6255 N.am    1  UNL1       -0.1708
     23 C          59.6089   90.5756    5.5952 C.2     1  UNL1        0.3078
     24 O          58.1109   90.6480    5.6241 O.2     1  UNL1       -0.2516
     25 H          61.3238   89.7199    6.6065 H       1  UNL1        0.2545
     26 N          58.5862   87.9725    7.2962 N.pl3   1  UNL1       -0.1313
     27 C          59.5744   89.0319    7.6847 C.2     1  UNL1        0.3751
     28 N          59.7965   89.3557    9.1324 N.pl3   1  UNL1       -0.2906
     29 H          58.0833   87.4897    7.9913 H       1  UNL1        0.3060
     30 H          59.2937   88.8730    9.8276 H       1  UNL1        0.2545
     31 H          60.4451   90.0511    9.3874 H       1  UNL1        0.2545
     32 C          59.7610   94.1001    1.7802 C.3     1  UNL1        0.4183
     33 F          59.0708   95.1267    0.9318 F       1  UNL1       -0.1659
     34 F          60.4078   95.1937    2.5774 F       1  UNL1       -0.1659
     35 F          59.1142   93.0065    0.9830 F       1  UNL1       -0.1659
@<TRIPOS>BOND
     1    26    27    2
     2    27    28    1
     3    27    22    1
     4    22    23   am
     5    23    24    2
     6    23     1    1
     7     1     2   ar
     8     2     3   ar
     9     3     4   ar
    10     4     7    1
    11     7     8    1
    12     8     9    1
    13     9    10    1
    14    10    11   am
    15    11    12    2
    16    11    15    1
    17    15    16   ar
    18    16    17   ar
    19    17    18   ar
    20    18    19    1
    21    18    20   ar
    22    20    21   ar
    23    10    13    1
    24    13    14    1
    25     4     5   ar
    26     5    32    1
    27    32    33    1
    28    32    34    1
    29    32    35    1
    30     5     6   ar
    31     6     1   ar
    32    14     7    1
    33    21    15   ar
    34    26    29    1
    35    28    30    1
    36    28    31    1
    37    22    25    1
@<TRIPOS>MOLECULE
*****
 35 37 0 0 0
SMALL
GASTEIGER

@<TRIPOS>ATOM
      1 C          59.4929   89.6313    7.1646 C.ar    1  UNL1        0.0696
      2 C          59.7500   90.2337    8.5140 C.ar    1  UNL1        0.0057
      3 C          60.4260   89.4239    9.5804 C.ar    1  UNL1       -0.0041
      4 C          60.8450   88.0118    9.2974 C.ar    1  UNL1       -0.0185
      5 C          60.5879   87.4093    7.9480 C.ar    1  UNL1        0.0677
      6 C          59.9119   88.2191    6.8816 C.ar    1  UNL1        0.0095
      7 C          61.5210   87.2020   10.3638 C.3     1  UNL1        0.0257
      8 C          61.2810   85.7238   10.4484 C.3     1  UNL1        0.0259
      9 C          61.9570   84.9140   11.5149 C.3     1  UNL1        0.0940
     10 N          62.8731   85.5824   12.4966 N.am    1  UNL1       -0.2761
     11 C          63.5492   84.7726   13.5630 C.2     1  UNL1        0.2490
     12 O          64.4652   85.4411   14.5448 O.2     1  UNL1       -0.2699
     13 C          63.1132   87.0606   12.4120 C.3     1  UNL1        0.0940
     14 C          62.4371   87.8704   11.3456 C.3     1  UNL1        0.0259
     15 C          63.3091   83.2944   13.6477 C.ar    1  UNL1        0.0537
     16 C          62.1396   82.7678   14.4256 C.ar    1  UNL1        0.0068
     17 C          61.8996   81.2896   14.5102 C.ar    1  UNL1        0.0298
     18 C          62.8290   80.3379   13.8170 C.ar    1  UNL1        0.1401
     19 F          62.5889   78.8596   13.9016 F       1  UNL1       -0.2042
     20 C          63.9984   80.8645   13.0391 C.ar    1  UNL1        0.0298
     21 C          64.2385   82.3428   12.9544 C.ar    1  UNL1        0.0068
     22 N          59.6279   91.3361    5.2087 N.am    1  UNL1       -0.1708
     23 C          58.8169   90.4411    6.0982 C.2     1  UNL1        0.3078
     24 O          57.3298   90.3559    5.9212 O.2     1  UNL1       -0.2516
     25 H          60.6039   91.3920    5.3248 H       1  UNL1        0.2545
     26 N          57.4838   91.9735    3.8871 N.pl3   1  UNL1       -0.1313
     27 C          58.9518   92.1459    4.1423 C.2     1  UNL1        0.3751
     28 N          59.7439   93.1280    3.3310 N.pl3   1  UNL1       -0.2906
     29 H          57.0401   92.5050    3.1872 H       1  UNL1        0.3060
     30 H          59.3002   93.6595    2.6311 H       1  UNL1        0.2545
     31 H          60.7074   93.2411    3.4985 H       1  UNL1        0.2545
     32 C          61.0069   85.9971    7.6649 C.3     1  UNL1        0.4183
     33 F          61.4258   84.5849    7.3819 F       1  UNL1       -0.1659
     34 F          59.5710   85.6106    7.4676 F       1  UNL1       -0.1659
     35 F          62.4427   86.3835    7.8623 F       1  UNL1       -0.1659
@<TRIPOS>BOND
     1    26    27    2
     2    27    28    1
     3    27    22    1
     4    22    23   am
     5    23    24    2
     6    23     1    1
     7     1     2   ar
     8     2     3   ar
     9     3     4   ar
    10     4     7    1
    11     7     8    1
    12     8     9    1
    13     9    10    1
    14    10    11   am
    15    11    12    2
    16    11    15    1
    17    15    16   ar
    18    16    17   ar
    19    17    18   ar
    20    18    19    1
    21    18    20   ar
    22    20    21   ar
    23    10    13    1
    24    13    14    1
    25     4     5   ar
    26     5    32    1
    27    32    33    1
    28    32    34    1
    29    32    35    1
    30     5     6   ar
    31     6     1   ar
    32    14     7    1
    33    21    15   ar
    34    26    29    1
    35    28    30    1
    36    28    31    1
    37    22    25    1
@<TRIPOS>MOLECULE
*****
 35 37 0 0 0
SMALL
GASTEIGER

@<TRIPOS>ATOM
      1 C          63.1931   86.1649   13.8307 C.ar    1  UNL1        0.0696
      2 C          64.2540   86.7533   14.7130 C.ar    1  UNL1        0.0057
      3 C          64.7397   88.1517   14.4715 C.ar    1  UNL1       -0.0041
      4 C          64.1647   88.9618   13.3477 C.ar    1  UNL1       -0.0185
      5 C          63.1039   88.3735   12.4654 C.ar    1  UNL1        0.0677
      6 C          62.6181   86.9750   12.7069 C.ar    1  UNL1        0.0095
      7 C          64.6505   90.3603   13.1062 C.3     1  UNL1        0.0257
      8 C          64.6864   90.9114   11.7116 C.3     1  UNL1        0.0259
      9 C          65.1722   92.3099   11.4701 C.3     1  UNL1        0.0940
     10 N          65.6221   93.1572   12.6231 N.am    1  UNL1       -0.2761
     11 C          66.1079   94.5557   12.3816 C.2     1  UNL1        0.2490
     12 O          66.5578   95.4030   13.5347 O.2     1  UNL1       -0.2699
     13 C          65.5862   92.6061   14.0177 C.3     1  UNL1        0.0940
     14 C          65.1004   91.2076   14.2592 C.3     1  UNL1        0.0259
     15 C          66.1438   95.1068   10.9870 C.ar    1  UNL1        0.0537
     16 C          65.2999   96.2938   10.6277 C.ar    1  UNL1        0.0068
     17 C          65.3357   96.8449    9.2331 C.ar    1  UNL1        0.0298
     18 C          66.2155   96.2092    8.1978 C.ar    1  UNL1        0.1401
     19 F          66.2514   96.7604    6.8032 F       1  UNL1       -0.2042
     20 C          67.0594   95.0223    8.5571 C.ar    1  UNL1        0.0298
     21 C          67.0235   94.4711    9.9517 C.ar    1  UNL1        0.0068
     22 N          63.1984   83.6423   13.2091 N.am    1  UNL1       -0.1708
     23 C          62.7074   84.7665   14.0723 C.2     1  UNL1        0.3078
     24 O          61.7305   84.4921   15.1770 O.2     1  UNL1       -0.2516
     25 H          63.8396   83.8224   12.4840 H       1  UNL1        0.2545
     26 N          62.3714   81.7982   14.8416 N.pl3   1  UNL1       -0.1313
     27 C          62.7126   82.2439   13.4506 C.2     1  UNL1        0.3751
     28 N          62.5682   81.2911   12.3010 N.pl3   1  UNL1       -0.2906
     29 H          62.0525   80.8804   15.0001 H       1  UNL1        0.3060
     30 H          62.2493   80.3732   12.4595 H       1  UNL1        0.2545
     31 H          62.7922   81.5836   11.3881 H       1  UNL1        0.2545
     32 C          62.5288   89.1836   11.3415 C.3     1  UNL1        0.4183
     33 F          61.9538   89.9937   10.2176 F       1  UNL1       -0.1659
     34 F          61.8769   90.0991   12.3349 F       1  UNL1       -0.1659
     35 F          63.1808   88.2682   10.3481 F       1  UNL1       -0.1659
@<TRIPOS>BOND
     1    26    27    2
     2    27    28    1
     3    27    22    1
     4    22    23   am
     5    23    24    2
     6    23     1    1
     7     1     2   ar
     8     2     3   ar
     9     3     4   ar
    10     4     7    1
    11     7     8    1
    12     8     9    1
    13     9    10    1
    14    10    11   am
    15    11    12    2
    16    11    15    1
    17    15    16   ar
    18    16    17   ar
    19    17    18   ar
    20    18    19    1
    21    18    20   ar
    22    20    21   ar
    23    10    13    1
    24    13    14    1
    25     4     5   ar
    26     5    32    1
    27    32    33    1
    28    32    34    1
    29    32    35    1
    30     5     6   ar
    31     6     1   ar
    32    14     7    1
    33    21    15   ar
    34    26    29    1
    35    28    30    1
    36    28    31    1
    37    22    25    1
