@<TRIPOS>MOLECULE
*****
 32 35 0 0 0
SMALL
GASTEIGER

@<TRIPOS>ATOM
      1 C          62.4382   89.2037   10.8788 C.ar    1  UNL1        0.1399
      2 C          62.7446   90.3858   10.0078 C.ar    1  UNL1        0.0554
      3 C          63.5955   91.5039   10.5329 C.ar    1  UNL1        0.1047
      4 N          64.1401   91.4398   11.9291 N.ar    1  UNL1       -0.2119
      5 C          63.8337   90.2577   12.8002 C.ar    1  UNL1        0.2218
      6 N          62.9827   89.1396   12.2750 N.ar    1  UNL1       -0.1983
      7 C          60.2088   88.3717    9.8358 C.3     1  UNL1        0.1187
      8 N          61.5872   88.0856   10.3536 N.pl3   1  UNL1       -0.2705
      9 C          62.1147   86.6814   10.3463 C.ar    1  UNL1        0.0543
     10 C          62.7210   86.1145    9.0969 C.ar    1  UNL1        0.0150
     11 C          63.2485   84.7103    9.0896 C.ar    1  UNL1        0.0044
     12 C          63.1697   83.8731   10.3317 C.ar    1  UNL1        0.0382
     13 C          63.6034   82.4671   10.6236 C.ar    1  UNL1        0.0966
     14 N          63.2651   82.1651   12.0534 N.ar    1  UNL1       -0.2474
     15 C          63.5242   80.8710   12.7664 C.3     1  UNL1        0.1538
     16 N          62.6224   83.3844   12.6452 N.ar    1  UNL1       -0.1692
     17 C          62.5634   84.4400   11.5811 C.ar    1  UNL1        0.1036
     18 C          62.0359   85.8441   11.5884 C.ar    1  UNL1        0.0357
     19 N          64.3782   90.1937   14.1963 N.pl3   1  UNL1       -0.2825
     20 H          64.9954   90.8907   14.5164 H       1  UNL1        0.1551
     21 C          63.9824   89.0676   15.1049 C.ar    1  UNL1        0.0518
     22 C          63.2385   89.3550   16.3752 C.ar    1  UNL1        0.0148
     23 C          62.8427   88.2290   17.2837 C.ar    1  UNL1        0.0026
     24 C          63.1909   86.8156   16.9219 C.ar    1  UNL1        0.0200
     25 C          63.9348   86.5282   15.6515 C.ar    1  UNL1        0.1229
     26 C          64.3306   87.6542   14.7430 C.ar    1  UNL1        0.0346
     27 S          64.2830   85.1147   15.2896 S.O2    1  UNL1        0.0572
     28 N          64.6311   83.7013   14.9277 N.3     1  UNL1       -0.2035
     29 O          62.9522   84.6546   15.8064 O.2     1  UNL1       -0.1532
     30 O          65.6138   85.5748   14.7728 O.2     1  UNL1       -0.1532
     31 H          63.8568   83.0859   15.1770 H       1  UNL1        0.1442
     32 H          65.4687   83.4167   15.4356 H       1  UNL1        0.1442
@<TRIPOS>BOND
     1     7     8    1
     2     8     9    1
     3     9    10   ar
     4    10    11   ar
     5    11    12   ar
     6    12    13   ar
     7    13    14   ar
     8    14    15    1
     9    14    16   ar
    10    16    17   ar
    11    17    18   ar
    12     8     1    1
    13     1     2   ar
    14     2     3   ar
    15     3     4   ar
    16     4     5   ar
    17     5    19    1
    18    19    21    1
    19    21    22   ar
    20    22    23   ar
    21    23    24   ar
    22    24    25   ar
    23    25    27    1
    24    27    28    1
    25    27    29    2
    26    27    30    2
    27    25    26   ar
    28     5     6   ar
    29    18     9   ar
    30     6     1   ar
    31    17    12   ar
    32    26    21   ar
    33    19    20    1
    34    28    31    1
    35    28    32    1
@<TRIPOS>MOLECULE
*****
 32 35 0 0 0
SMALL
GASTEIGER

@<TRIPOS>ATOM
      1 C          63.1392   83.5504   12.1316 C.ar    1  UNL1        0.1399
      2 C          62.4315   82.2609   12.4253 C.ar    1  UNL1        0.0554
      3 C          62.3725   81.7410   13.8311 C.ar    1  UNL1        0.1047
      4 N          63.0212   82.5107   14.9432 N.ar    1  UNL1       -0.2119
      5 C          63.7289   83.8003   14.6495 C.ar    1  UNL1        0.2218
      6 N          63.7879   84.3202   13.2437 N.ar    1  UNL1       -0.1983
      7 C          63.9983   83.3393    9.6888 C.3     1  UNL1        0.1187
      8 N          63.1982   84.0702   10.7258 N.pl3   1  UNL1       -0.2705
      9 C          62.4569   85.3211   10.3570 C.ar    1  UNL1        0.0543
     10 C          62.2549   85.6752    8.9134 C.ar    1  UNL1        0.0150
     11 C          61.5137   86.9260    8.5447 C.ar    1  UNL1        0.0044
     12 C          60.9745   87.8228    9.6195 C.ar    1  UNL1        0.0382
     13 C          60.2090   89.1115    9.5610 C.ar    1  UNL1        0.0966
     14 N          59.9379   89.5537   10.9684 N.ar    1  UNL1       -0.2474
     15 C          59.1986   90.7937   11.3761 C.3     1  UNL1        0.1538
     16 N          60.5359   88.5384   11.8967 N.ar    1  UNL1       -0.1692
     17 C          61.1765   87.4687   11.0630 C.ar    1  UNL1        0.1036
     18 C          61.9177   86.2178   11.4317 C.ar    1  UNL1        0.0357
     19 N          64.3776   84.5700   15.7616 N.pl3   1  UNL1       -0.2825
     20 H          65.0882   84.1524   16.3000 H       1  UNL1        0.1551
     21 C          63.9436   85.9759   16.0533 C.ar    1  UNL1        0.0518
     22 C          63.2237   86.2886   17.3315 C.ar    1  UNL1        0.0148
     23 C          62.7897   87.6945   17.6233 C.ar    1  UNL1        0.0026
     24 C          63.0756   88.7877   16.6368 C.ar    1  UNL1        0.0200
     25 C          63.7954   88.4749   15.3585 C.ar    1  UNL1        0.1229
     26 C          64.2294   87.0691   15.0668 C.ar    1  UNL1        0.0346
     27 S          64.0813   89.5681   14.3720 S.O2    1  UNL1        0.0572
     28 N          64.3672   90.6612   13.3854 N.3     1  UNL1       -0.2035
     29 O          63.7805   88.6277   13.2428 O.2     1  UNL1       -0.1532
     30 O          64.3822   90.5086   15.5011 O.2     1  UNL1       -0.1532
     31 H          64.2391   90.3061   12.4378 H       1  UNL1        0.1442
     32 H          65.3288   90.9811   13.5015 H       1  UNL1        0.1442
@<TRIPOS>BOND
     1     7     8    1
     2     8     9    1
     3     9    10   ar
     4    10    11   ar
     5    11    12   ar
     6    12    13   ar
     7    13    14   ar
     8    14    15    1
     9    14    16   ar
    10    16    17   ar
    11    17    18   ar
    12     8     1    1
    13     1     2   ar
    14     2     3   ar
    15     3     4   ar
    16     4     5   ar
    17     5    19    1
    18    19    21    1
    19    21    22   ar
    20    22    23   ar
    21    23    24   ar
    22    24    25   ar
    23    25    27    1
    24    27    28    1
    25    27    29    2
    26    27    30    2
    27    25    26   ar
    28     5     6   ar
    29    18     9   ar
    30     6     1   ar
    31    17    12   ar
    32    26    21   ar
    33    19    20    1
    34    28    31    1
    35    28    32    1
@<TRIPOS>MOLECULE
*****
 32 35 0 0 0
SMALL
GASTEIGER

@<TRIPOS>ATOM
      1 C          60.9180   88.2897   10.1466 C.ar    1  UNL1        0.1399
      2 C          59.8112   88.1960    9.1385 C.ar    1  UNL1        0.0554
      3 C          59.8138   87.0928    8.1222 C.ar    1  UNL1        0.1047
      4 N          60.9233   86.0834    8.1138 N.ar    1  UNL1       -0.2119
      5 C          62.0302   86.1771    9.1219 C.ar    1  UNL1        0.2218
      6 N          62.0275   87.2802   10.1382 N.ar    1  UNL1       -0.1983
      7 C          59.6817   89.6644   11.9719 C.3     1  UNL1        0.1187
      8 N          60.9153   89.3929   11.1629 N.pl3   1  UNL1       -0.2705
      9 C          62.1464   90.2245   11.3703 C.ar    1  UNL1        0.0543
     10 C          62.7902   90.9149   10.2047 C.ar    1  UNL1        0.0150
     11 C          64.0212   91.7465   10.4121 C.ar    1  UNL1        0.0044
     12 C          64.6083   91.8877   11.7852 C.ar    1  UNL1        0.0382
     13 C          65.8057   92.6353   12.2928 C.ar    1  UNL1        0.0966
     14 N          65.9017   92.4070   13.7722 N.ar    1  UNL1       -0.2474
     15 C          66.9514   92.9687   14.6848 C.3     1  UNL1        0.1538
     16 N          64.7638   91.5183   14.1789 N.ar    1  UNL1       -0.1692
     17 C          63.9644   91.1974   12.9509 C.ar    1  UNL1        0.1036
     18 C          62.7335   90.3658   12.7434 C.ar    1  UNL1        0.0357
     19 N          63.1396   85.1676    9.1135 N.pl3   1  UNL1       -0.2825
     20 H          63.7299   85.0914    8.3293 H       1  UNL1        0.1551
     21 C          63.3498   84.2743   10.3000 C.ar    1  UNL1        0.0518
     22 C          64.0131   82.9403   10.1263 C.ar    1  UNL1        0.0148
     23 C          64.2233   82.0470   11.3128 C.ar    1  UNL1        0.0026
     24 C          63.7702   82.4877   12.6731 C.ar    1  UNL1        0.0200
     25 C          63.1068   83.8218   12.8468 C.ar    1  UNL1        0.1229
     26 C          62.8966   84.7151   11.6603 C.ar    1  UNL1        0.0346
     27 S          62.6536   84.2626   14.2071 S.O2    1  UNL1        0.0572
     28 N          62.2005   84.7034   15.5673 N.3     1  UNL1       -0.2035
     29 O          63.1684   85.6441   13.9309 O.2     1  UNL1       -0.1532
     30 O          62.1389   82.8811   14.4834 O.2     1  UNL1       -0.1532
     31 H          62.4278   85.6891   15.6985 H       1  UNL1        0.1442
     32 H          62.6735   84.1477   16.2800 H       1  UNL1        0.1442
@<TRIPOS>BOND
     1     7     8    1
     2     8     9    1
     3     9    10   ar
     4    10    11   ar
     5    11    12   ar
     6    12    13   ar
     7    13    14   ar
     8    14    15    1
     9    14    16   ar
    10    16    17   ar
    11    17    18   ar
    12     8     1    1
    13     1     2   ar
    14     2     3   ar
    15     3     4   ar
    16     4     5   ar
    17     5    19    1
    18    19    21    1
    19    21    22   ar
    20    22    23   ar
    21    23    24   ar
    22    24    25   ar
    23    25    27    1
    24    27    28    1
    25    27    29    2
    26    27    30    2
    27    25    26   ar
    28     5     6   ar
    29    18     9   ar
    30     6     1   ar
    31    17    12   ar
    32    26    21   ar
    33    19    20    1
    34    28    31    1
    35    28    32    1
@<TRIPOS>MOLECULE
*****
 32 35 0 0 0
SMALL
GASTEIGER

@<TRIPOS>ATOM
      1 C          62.1134   89.9005   11.2509 C.ar    1  UNL1        0.1399
      2 C          60.7604   90.2666   11.7851 C.ar    1  UNL1        0.0554
      3 C          59.6721   89.2358   11.8409 C.ar    1  UNL1        0.1047
      4 N          59.9367   87.8390   11.3626 N.ar    1  UNL1       -0.2119
      5 C          61.2898   87.4729   10.8284 C.ar    1  UNL1        0.2218
      6 N          62.3781   88.5036   10.7725 N.ar    1  UNL1       -0.1983
      7 C          63.4633   91.6774    9.9204 C.3     1  UNL1        0.1187
      8 N          63.2017   90.9312   11.1951 N.pl3   1  UNL1       -0.2705
      9 C          64.0285   91.2158   12.4139 C.ar    1  UNL1        0.0543
     10 C          63.7123   90.5321   13.7110 C.ar    1  UNL1        0.0150
     11 C          64.5390   90.8166   14.9298 C.ar    1  UNL1        0.0044
     12 C          65.6820   91.7848   14.8515 C.ar    1  UNL1        0.0382
     13 C          66.6658   92.2614   15.8787 C.ar    1  UNL1        0.0966
     14 N          67.5901   93.2397   15.2163 N.ar    1  UNL1       -0.2474
     15 C          68.7273   93.9630   15.8748 C.3     1  UNL1        0.1538
     16 N          67.1775   93.3677   13.7798 N.ar    1  UNL1       -0.1692
     17 C          65.9982   92.4686   13.5544 C.ar    1  UNL1        0.1036
     18 C          65.1714   92.1840   12.3356 C.ar    1  UNL1        0.0357
     19 N          61.5544   86.0761   10.3500 N.pl3   1  UNL1       -0.2825
     20 H          61.0921   85.7335    9.5512 H       1  UNL1        0.1551
     21 C          62.5234   85.2013   11.0888 C.ar    1  UNL1        0.0518
     22 C          63.1827   84.0519   10.3858 C.ar    1  UNL1        0.0148
     23 C          64.1517   83.1771   11.1245 C.ar    1  UNL1        0.0026
     24 C          64.4615   83.4517   12.5662 C.ar    1  UNL1        0.0200
     25 C          63.8022   84.6011   13.2692 C.ar    1  UNL1        0.1229
     26 C          62.8332   85.4759   12.5305 C.ar    1  UNL1        0.0346
     27 S          64.1120   84.8758   14.7110 S.O2    1  UNL1        0.0572
     28 N          64.4218   85.1504   16.1527 N.3     1  UNL1       -0.2035
     29 O          64.2724   83.4048   14.9567 O.2     1  UNL1       -0.1532
     30 O          63.9516   86.3468   14.4653 O.2     1  UNL1       -0.1532
     31 H          64.5948   84.2696   16.6370 H       1  UNL1        0.1442
     32 H          63.6306   85.6268   16.5857 H       1  UNL1        0.1442
@<TRIPOS>BOND
     1     7     8    1
     2     8     9    1
     3     9    10   ar
     4    10    11   ar
     5    11    12   ar
     6    12    13   ar
     7    13    14   ar
     8    14    15    1
     9    14    16   ar
    10    16    17   ar
    11    17    18   ar
    12     8     1    1
    13     1     2   ar
    14     2     3   ar
    15     3     4   ar
    16     4     5   ar
    17     5    19    1
    18    19    21    1
    19    21    22   ar
    20    22    23   ar
    21    23    24   ar
    22    24    25   ar
    23    25    27    1
    24    27    28    1
    25    27    29    2
    26    27    30    2
    27    25    26   ar
    28     5     6   ar
    29    18     9   ar
    30     6     1   ar
    31    17    12   ar
    32    26    21   ar
    33    19    20    1
    34    28    31    1
    35    28    32    1
@<TRIPOS>MOLECULE
*****
 32 35 0 0 0
SMALL
GASTEIGER

@<TRIPOS>ATOM
      1 C          61.2777   88.1908    9.7003 C.ar    1  UNL1        0.1399
      2 C          59.9149   88.7556    9.9720 C.ar    1  UNL1        0.0554
      3 C          59.7745   90.1432   10.5241 C.ar    1  UNL1        0.1047
      4 N          60.9969   90.9660   10.8045 N.ar    1  UNL1       -0.2119
      5 C          62.3598   90.4012   10.5328 C.ar    1  UNL1        0.2218
      6 N          62.5001   89.0136    9.9808 N.ar    1  UNL1       -0.1983
      7 C          60.8196   86.4620    7.8158 C.3     1  UNL1        0.1187
      8 N          61.4180   86.8032    9.1482 N.pl3   1  UNL1       -0.2705
      9 C          62.1568   85.7566    9.9287 C.ar    1  UNL1        0.0543
     10 C          63.0544   84.7864    9.2195 C.ar    1  UNL1        0.0150
     11 C          63.7931   83.7400   10.0000 C.ar    1  UNL1        0.0044
     12 C          63.6343   83.6637   11.4896 C.ar    1  UNL1        0.0382
     13 C          64.2301   82.7474   12.5170 C.ar    1  UNL1        0.0966
     14 N          63.7007   83.1513   13.8610 N.ar    1  UNL1       -0.2474
     15 C          64.0355   82.5031   15.1717 C.3     1  UNL1        0.1538
     16 N          62.7777   84.3173   13.6644 N.ar    1  UNL1       -0.1692
     17 C          62.7367   84.6339   12.1988 C.ar    1  UNL1        0.1036
     18 C          61.9979   85.6804   11.4183 C.ar    1  UNL1        0.0357
     19 N          63.5822   91.2240   10.8133 N.pl3   1  UNL1       -0.2825
     20 H          64.0119   91.7306   10.0867 H       1  UNL1        0.1551
     21 C          64.1498   91.2751   12.2008 C.ar    1  UNL1        0.0518
     22 C          65.3038   92.1833   12.5060 C.ar    1  UNL1        0.0148
     23 C          65.8715   92.2344   13.8936 C.ar    1  UNL1        0.0026
     24 C          65.2851   91.3772   14.9758 C.ar    1  UNL1        0.0200
     25 C          64.1310   90.4690   14.6706 C.ar    1  UNL1        0.1229
     26 C          63.5634   90.4179   13.2830 C.ar    1  UNL1        0.0346
     27 S          63.5446   89.6118   15.7528 S.O2    1  UNL1        0.0572
     28 N          62.9581   88.7545   16.8350 N.3     1  UNL1       -0.2035
     29 O          63.7978   88.3891   14.9216 O.2     1  UNL1       -0.1532
     30 O          63.2913   90.8344   16.5841 O.2     1  UNL1       -0.1532
     31 H          62.9876   87.7764   16.5474 H       1  UNL1        0.1442
     32 H          61.9905   89.0311   17.0010 H       1  UNL1        0.1442
@<TRIPOS>BOND
     1     7     8    1
     2     8     9    1
     3     9    10   ar
     4    10    11   ar
     5    11    12   ar
     6    12    13   ar
     7    13    14   ar
     8    14    15    1
     9    14    16   ar
    10    16    17   ar
    11    17    18   ar
    12     8     1    1
    13     1     2   ar
    14     2     3   ar
    15     3     4   ar
    16     4     5   ar
    17     5    19    1
    18    19    21    1
    19    21    22   ar
    20    22    23   ar
    21    23    24   ar
    22    24    25   ar
    23    25    27    1
    24    27    28    1
    25    27    29    2
    26    27    30    2
    27    25    26   ar
    28     5     6   ar
    29    18     9   ar
    30     6     1   ar
    31    17    12   ar
    32    26    21   ar
    33    19    20    1
    34    28    31    1
    35    28    32    1
@<TRIPOS>MOLECULE
*****
 32 35 0 0 0
SMALL
GASTEIGER

@<TRIPOS>ATOM
      1 C          61.1128   88.2274   10.1289 C.ar    1  UNL1        0.1399
      2 C          60.1735   89.3382    9.7633 C.ar    1  UNL1        0.0554
      3 C          60.0879   90.5624   10.6259 C.ar    1  UNL1        0.1047
      4 N          60.9415   90.6758   11.8540 N.ar    1  UNL1       -0.2119
      5 C          61.8809   89.5649   12.2196 C.ar    1  UNL1        0.2218
      6 N          61.9666   88.3407   11.3571 N.ar    1  UNL1       -0.1983
      7 C          60.4759   86.9593    7.9526 C.3     1  UNL1        0.1187
      8 N          61.1985   87.0032    9.2663 N.pl3   1  UNL1       -0.2705
      9 C          62.0068   85.8229    9.7176 C.ar    1  UNL1        0.0543
     10 C          63.0118   85.2041    8.7918 C.ar    1  UNL1        0.0150
     11 C          63.8200   84.0238    9.2431 C.ar    1  UNL1        0.0044
     12 C          63.6232   83.4623   10.6200 C.ar    1  UNL1        0.0382
     13 C          64.2696   82.3146   11.3378 C.ar    1  UNL1        0.0966
     14 N          63.6640   82.2242   12.7071 N.ar    1  UNL1       -0.2474
     15 C          64.0171   81.2186   13.7627 C.3     1  UNL1        0.1538
     16 N          62.6434   83.3159   12.8356 N.ar    1  UNL1       -0.1692
     17 C          62.6182   84.0811   11.5458 C.ar    1  UNL1        0.1036
     18 C          61.8100   85.2614   11.0945 C.ar    1  UNL1        0.0357
     19 N          62.7346   89.6783   13.4478 N.pl3   1  UNL1       -0.2825
     20 H          62.4863   89.1912   14.2665 H       1  UNL1        0.1551
     21 C          63.9665   90.5338   13.4285 C.ar    1  UNL1        0.0518
     22 C          64.9330   90.4829   14.5744 C.ar    1  UNL1        0.0148
     23 C          66.1650   91.3384   14.5552 C.ar    1  UNL1        0.0026
     24 C          66.4304   92.2450   13.3900 C.ar    1  UNL1        0.0200
     25 C          65.4638   92.2960   12.2441 C.ar    1  UNL1        0.1229
     26 C          64.2319   91.4404   12.2633 C.ar    1  UNL1        0.0346
     27 S          65.7292   93.2025   11.0788 S.O2    1  UNL1        0.0572
     28 N          65.9946   94.1091    9.9137 N.3     1  UNL1       -0.2035
     29 O          66.8605   93.8382   11.8311 O.2     1  UNL1       -0.1532
     30 O          64.5979   92.5669   10.3266 O.2     1  UNL1       -0.1532
     31 H          66.7801   94.7221   10.1319 H       1  UNL1        0.1442
     32 H          65.1655   94.6727    9.7256 H       1  UNL1        0.1442
@<TRIPOS>BOND
     1     7     8    1
     2     8     9    1
     3     9    10   ar
     4    10    11   ar
     5    11    12   ar
     6    12    13   ar
     7    13    14   ar
     8    14    15    1
     9    14    16   ar
    10    16    17   ar
    11    17    18   ar
    12     8     1    1
    13     1     2   ar
    14     2     3   ar
    15     3     4   ar
    16     4     5   ar
    17     5    19    1
    18    19    21    1
    19    21    22   ar
    20    22    23   ar
    21    23    24   ar
    22    24    25   ar
    23    25    27    1
    24    27    28    1
    25    27    29    2
    26    27    30    2
    27    25    26   ar
    28     5     6   ar
    29    18     9   ar
    30     6     1   ar
    31    17    12   ar
    32    26    21   ar
    33    19    20    1
    34    28    31    1
    35    28    32    1
@<TRIPOS>MOLECULE
*****
 32 35 0 0 0
SMALL
GASTEIGER

@<TRIPOS>ATOM
      1 C          62.3139   89.7895   11.3271 C.ar    1  UNL1        0.1399
      2 C          60.8680   90.0658   11.6151 C.ar    1  UNL1        0.0554
      3 C          59.8809   88.9369   11.6487 C.ar    1  UNL1        0.1047
      4 N          60.3397   87.5317   11.3944 N.ar    1  UNL1       -0.2119
      5 C          61.7856   87.2553   11.1065 C.ar    1  UNL1        0.2218
      6 N          62.7728   88.3842   11.0729 N.ar    1  UNL1       -0.1983
      7 C          63.4808   91.7203   10.0387 C.3     1  UNL1        0.1187
      8 N          63.3010   90.9184   11.2935 N.pl3   1  UNL1       -0.2705
      9 C          64.1083   91.2455   12.5148 C.ar    1  UNL1        0.0543
     10 C          63.7600   90.6212   13.8334 C.ar    1  UNL1        0.0150
     11 C          64.5673   90.9482   15.0546 C.ar    1  UNL1        0.0044
     12 C          65.7229   91.8995   14.9571 C.ar    1  UNL1        0.0382
     13 C          66.6931   92.4085   15.9817 C.ar    1  UNL1        0.0966
     14 N          67.6410   93.3474   15.2962 N.ar    1  UNL1       -0.2474
     15 C          68.7744   94.0855   15.9450 C.3     1  UNL1        0.1538
     16 N          67.2567   93.4187   13.8480 N.ar    1  UNL1       -0.1692
     17 C          66.0712   92.5238   13.6384 C.ar    1  UNL1        0.1036
     18 C          65.2639   92.1968   12.4173 C.ar    1  UNL1        0.0357
     19 N          62.2444   85.8500   10.8522 N.pl3   1  UNL1       -0.2825
     20 H          62.2366   85.4876    9.9369 H       1  UNL1        0.1551
     21 C          62.7153   84.9968   11.9926 C.ar    1  UNL1        0.0518
     22 C          63.4528   85.6197   13.1406 C.ar    1  UNL1        0.0148
     23 C          63.9236   84.7665   14.2810 C.ar    1  UNL1        0.0026
     24 C          63.6569   83.2905   14.2733 C.ar    1  UNL1        0.0200
     25 C          62.9194   82.6676   13.1252 C.ar    1  UNL1        0.1229
     26 C          62.4486   83.5208   11.9849 C.ar    1  UNL1        0.0346
     27 S          62.6527   81.1915   13.1175 S.O2    1  UNL1        0.0572
     28 N          62.3860   79.7154   13.1097 N.3     1  UNL1       -0.2035
     29 O          62.9613   81.1434   11.6504 O.2     1  UNL1       -0.1532
     30 O          62.3441   81.2395   14.5846 O.2     1  UNL1       -0.1532
     31 H          62.5234   79.3501   12.1673 H       1  UNL1        0.1442
     32 H          61.4252   79.5419   13.4049 H       1  UNL1        0.1442
@<TRIPOS>BOND
     1     7     8    1
     2     8     9    1
     3     9    10   ar
     4    10    11   ar
     5    11    12   ar
     6    12    13   ar
     7    13    14   ar
     8    14    15    1
     9    14    16   ar
    10    16    17   ar
    11    17    18   ar
    12     8     1    1
    13     1     2   ar
    14     2     3   ar
    15     3     4   ar
    16     4     5   ar
    17     5    19    1
    18    19    21    1
    19    21    22   ar
    20    22    23   ar
    21    23    24   ar
    22    24    25   ar
    23    25    27    1
    24    27    28    1
    25    27    29    2
    26    27    30    2
    27    25    26   ar
    28     5     6   ar
    29    18     9   ar
    30     6     1   ar
    31    17    12   ar
    32    26    21   ar
    33    19    20    1
    34    28    31    1
    35    28    32    1
@<TRIPOS>MOLECULE
*****
 32 35 0 0 0
SMALL
GASTEIGER

@<TRIPOS>ATOM
      1 C          60.9506   88.5444   10.0759 C.ar    1  UNL1        0.1399
      2 C          60.0281   88.3816    8.9044 C.ar    1  UNL1        0.0554
      3 C          60.0665   87.1235    8.0886 C.ar    1  UNL1        0.1047
      4 N          61.0275   86.0281    8.4443 N.ar    1  UNL1       -0.2119
      5 C          61.9501   86.1908    9.6158 C.ar    1  UNL1        0.2218
      6 N          61.9117   87.4490   10.4316 N.ar    1  UNL1       -0.1983
      7 C          59.5953   90.3763   11.3239 C.3     1  UNL1        0.1187
      8 N          60.9122   89.8026   10.8917 N.pl3   1  UNL1       -0.2705
      9 C          62.1906   90.4870   11.2754 C.ar    1  UNL1        0.0543
     10 C          63.0144   91.1782   10.2296 C.ar    1  UNL1        0.0150
     11 C          64.2928   91.8626   10.6133 C.ar    1  UNL1        0.0044
     12 C          64.7474   91.8558   12.0428 C.ar    1  UNL1        0.0382
     13 C          65.9536   92.4416   12.7152 C.ar    1  UNL1        0.0966
     14 N          65.8752   92.1124   14.1765 N.ar    1  UNL1       -0.2474
     15 C          66.8758   92.5036   15.2233 C.3     1  UNL1        0.1538
     16 N          64.6206   91.3232   14.4072 N.ar    1  UNL1       -0.1692
     17 C          63.9236   91.1647   13.0885 C.ar    1  UNL1        0.1036
     18 C          62.6452   90.4803   12.7048 C.ar    1  UNL1        0.0357
     19 N          62.9111   85.0954    9.9715 N.pl3   1  UNL1       -0.2825
     20 H          63.5327   84.7462    9.2926 H       1  UNL1        0.1551
     21 C          62.9250   84.5319   11.3616 C.ar    1  UNL1        0.0518
     22 C          63.1705   85.4344   12.5343 C.ar    1  UNL1        0.0148
     23 C          63.1844   84.8709   13.9243 C.ar    1  UNL1        0.0026
     24 C          62.9528   83.4049   14.1417 C.ar    1  UNL1        0.0200
     25 C          62.7073   82.5025   12.9690 C.ar    1  UNL1        0.1229
     26 C          62.6934   83.0660   11.5790 C.ar    1  UNL1        0.0346
     27 S          62.4756   81.0364   13.1864 S.O2    1  UNL1        0.0572
     28 N          62.2440   79.5705   13.4037 N.3     1  UNL1       -0.2035
     29 O          62.8504   80.7657   11.7594 O.2     1  UNL1       -0.1532
     30 O          62.1009   81.3071   14.6133 O.2     1  UNL1       -0.1532
     31 H          62.4318   79.0646   12.5381 H       1  UNL1        0.1442
     32 H          61.2753   79.4172   13.6838 H       1  UNL1        0.1442
@<TRIPOS>BOND
     1     7     8    1
     2     8     9    1
     3     9    10   ar
     4    10    11   ar
     5    11    12   ar
     6    12    13   ar
     7    13    14   ar
     8    14    15    1
     9    14    16   ar
    10    16    17   ar
    11    17    18   ar
    12     8     1    1
    13     1     2   ar
    14     2     3   ar
    15     3     4   ar
    16     4     5   ar
    17     5    19    1
    18    19    21    1
    19    21    22   ar
    20    22    23   ar
    21    23    24   ar
    22    24    25   ar
    23    25    27    1
    24    27    28    1
    25    27    29    2
    26    27    30    2
    27    25    26   ar
    28     5     6   ar
    29    18     9   ar
    30     6     1   ar
    31    17    12   ar
    32    26    21   ar
    33    19    20    1
    34    28    31    1
    35    28    32    1
@<TRIPOS>MOLECULE
*****
 32 35 0 0 0
SMALL
GASTEIGER

@<TRIPOS>ATOM
      1 C          63.4746   84.9977   13.9672 C.ar    1  UNL1        0.1399
      2 C          62.8362   84.4403   15.2048 C.ar    1  UNL1        0.0554
      3 C          62.7231   85.2878   16.4373 C.ar    1  UNL1        0.1047
      4 N          63.2484   86.6928   16.4321 N.ar    1  UNL1       -0.2119
      5 C          63.8868   87.2503   15.1944 C.ar    1  UNL1        0.2218
      6 N          63.9999   86.4028   13.9620 N.ar    1  UNL1       -0.1983
      7 C          64.2643   82.8132   12.8035 C.3     1  UNL1        0.1187
      8 N          63.5877   84.1502   12.7348 N.pl3   1  UNL1       -0.2705
      9 C          63.0241   84.6396   11.4337 C.ar    1  UNL1        0.0543
     10 C          63.5863   84.1378   10.1367 C.ar    1  UNL1        0.0150
     11 C          63.0228   84.6272    8.8357 C.ar    1  UNL1        0.0044
     12 C          61.8970   85.6185    8.8315 C.ar    1  UNL1        0.0382
     13 C          61.1432   86.2765    7.7140 C.ar    1  UNL1        0.0966
     14 N          60.1151   87.1850    8.3203 N.ar    1  UNL1       -0.2474
     15 C          59.1397   88.0400    7.5667 C.3     1  UNL1        0.1538
     16 N          60.2336   87.0885    9.8125 N.ar    1  UNL1       -0.1692
     17 C          61.3348   86.1204   10.1285 C.ar    1  UNL1        0.1036
     18 C          61.8984   85.6309   11.4295 C.ar    1  UNL1        0.0357
     19 N          64.4120   88.6553   15.1892 N.pl3   1  UNL1       -0.2825
     20 H          64.8841   89.0072   15.9782 H       1  UNL1        0.1551
     21 C          64.2181   89.5241   13.9819 C.ar    1  UNL1        0.0518
     22 C          63.1973   89.1533   12.9473 C.ar    1  UNL1        0.0148
     23 C          63.0033   90.0221   11.7400 C.ar    1  UNL1        0.0026
     24 C          63.8301   91.2616   11.5673 C.ar    1  UNL1        0.0200
     25 C          64.8508   91.6324   12.6020 C.ar    1  UNL1        0.1229
     26 C          65.0448   90.7637   13.8093 C.ar    1  UNL1        0.0346
     27 S          65.6777   92.8721   12.4294 S.O2    1  UNL1        0.0572
     28 N          66.5044   94.1117   12.2567 N.3     1  UNL1       -0.2035
     29 O          65.5674   92.7381   10.9395 O.2     1  UNL1       -0.1532
     30 O          65.7879   93.0061   13.9193 O.2     1  UNL1       -0.1532
     31 H          66.6212   94.3067   11.2624 H       1  UNL1        0.1442
     32 H          67.4194   93.9726   12.6856 H       1  UNL1        0.1442
@<TRIPOS>BOND
     1     7     8    1
     2     8     9    1
     3     9    10   ar
     4    10    11   ar
     5    11    12   ar
     6    12    13   ar
     7    13    14   ar
     8    14    15    1
     9    14    16   ar
    10    16    17   ar
    11    17    18   ar
    12     8     1    1
    13     1     2   ar
    14     2     3   ar
    15     3     4   ar
    16     4     5   ar
    17     5    19    1
    18    19    21    1
    19    21    22   ar
    20    22    23   ar
    21    23    24   ar
    22    24    25   ar
    23    25    27    1
    24    27    28    1
    25    27    29    2
    26    27    30    2
    27    25    26   ar
    28     5     6   ar
    29    18     9   ar
    30     6     1   ar
    31    17    12   ar
    32    26    21   ar
    33    19    20    1
    34    28    31    1
    35    28    32    1
