@<TRIPOS>MOLECULE
*****
 35 38 0 0 0
SMALL
GASTEIGER

@<TRIPOS>ATOM
      1 C          62.5808   84.9780   12.3852 C.3     1  UNL1        0.1532
      2 C          63.1849   78.8048   10.3171 C.3     1  UNL1        0.0189
      3 C          62.8332   79.9094   11.2690 C.3     1  UNL1        0.0742
      4 C          63.0586   81.3391   10.8752 C.3     1  UNL1        0.1091
      5 N          62.7069   82.4437   11.8272 N.am    1  UNL1       -0.2754
      6 C          62.9324   83.8734   11.4333 C.2     1  UNL1        0.2439
      7 O          63.5096   84.1985   10.0875 O.2     1  UNL1       -0.2731
      8 C          62.1298   82.1186   13.1729 C.3     1  UNL1        0.1105
      9 C          61.9043   80.6889   13.5668 C.3     1  UNL1        0.0904
     10 N          62.2560   79.5843   12.6148 N.3     1  UNL1       -0.2957
     11 H          61.3999   79.0556   12.4481 H       1  UNL1        0.1233
     12 N          61.9769   84.6542   13.7196 N.am    1  UNL1       -0.2978
     13 C          62.7863   84.8259   14.9707 C.2     1  UNL1        0.2257
     14 O          62.1060   84.4944   16.0886 O.2     1  UNL1       -0.2748
     15 H          61.0492   84.3290   13.7742 H       1  UNL1        0.1498
     16 C          64.1996   85.3214   14.8875 C.3     1  UNL1        0.0884
     17 C          65.6838   85.3185   14.6705 C.3     1  UNL1        0.0135
     18 C          64.8946   84.0583   14.4732 C.3     1  UNL1        0.0135
     19 C          63.9956   86.7567   15.2729 C.ar    1  UNL1       -0.0040
     20 C          64.3715   87.8504   14.3178 C.ar    1  UNL1       -0.0021
     21 C          64.1675   89.2857   14.7032 C.ar    1  UNL1        0.0111
     22 C          63.5875   89.6270   16.0437 C.ar    1  UNL1        0.0585
     23 CL         63.3835   91.0622   16.4291 Cl      1  UNL1       -0.0822
     24 C          63.2116   88.5333   16.9988 C.ar    1  UNL1        0.0225
     25 C          63.4156   87.0981   16.6135 C.ar    1  UNL1        0.0550
     26 CL         63.0301   86.2335   17.5760 Cl      1  UNL1       -0.0825
     27 C          62.8329   86.4063   12.0028 C.3     1  UNL1        0.0562
     28 C          61.9995   87.0561   10.9383 C.ar    1  UNL1       -0.0094
     29 C          61.0707   86.2265   10.1023 C.ar    1  UNL1       -0.0025
     30 C          60.2372   86.8763    9.0378 C.ar    1  UNL1        0.0111
     31 C          60.3327   88.3557    8.8094 C.ar    1  UNL1        0.0585
     32 CL         59.4992   89.0055    7.7449 Cl      1  UNL1       -0.0822
     33 C          61.2615   89.1854    9.6454 C.ar    1  UNL1        0.0225
     34 C          62.0950   88.5356   10.7099 C.ar    1  UNL1        0.0546
     35 CL         63.0238   89.3652   11.5459 Cl      1  UNL1       -0.0825
@<TRIPOS>BOND
     1     3     2    1
     2     3     4    1
     3     4     5    1
     4     5     6   am
     5     6     7    2
     6     6     1    1
     7     1    27    1
     8    27    28    1
     9    28    29   ar
    10    29    30   ar
    11    30    31   ar
    12    31    32    1
    13    31    33   ar
    14    33    34   ar
    15    34    35    1
    16     1    12    1
    17    12    13   am
    18    13    14    2
    19    13    16    1
    20    16    19    1
    21    19    20   ar
    22    20    21   ar
    23    21    22   ar
    24    22    23    1
    25    22    24   ar
    26    24    25   ar
    27    25    26    1
    28    16    17    1
    29    17    18    1
    30     5     8    1
    31     8     9    1
    32     9    10    1
    33    10     3    1
    34    34    28   ar
    35    18    16    1
    36    25    19   ar
    37    12    15    1
    38    10    11    1
@<TRIPOS>MOLECULE
*****
 35 38 0 0 0
SMALL
GASTEIGER

@<TRIPOS>ATOM
      1 C          63.0713   89.6589   12.4266 C.3     1  UNL1        0.1532
      2 C          66.6627   94.7788   10.5193 C.3     1  UNL1        0.0189
      3 C          66.1375   93.7431   11.4687 C.3     1  UNL1        0.0742
      4 C          65.1296   92.7368   10.9983 C.3     1  UNL1        0.1091
      5 N          64.6044   91.7010   11.9477 N.am    1  UNL1       -0.2754
      6 C          63.5964   90.6946   11.4772 C.2     1  UNL1        0.2439
      7 O          63.1137   90.7241   10.0573 O.2     1  UNL1       -0.2731
      8 C          65.0872   91.6716   13.3675 C.3     1  UNL1        0.1105
      9 C          66.0951   92.6779   13.8380 C.3     1  UNL1        0.0904
     10 N          66.6203   93.7136   12.8885 N.3     1  UNL1       -0.2957
     11 H          67.6326   93.5941   12.8529 H       1  UNL1        0.1233
     12 N          61.5933   89.5200   12.6425 N.am    1  UNL1       -0.2978
     13 C          60.8005   88.5584   11.8079 C.2     1  UNL1        0.2257
     14 O          59.4872   88.5474   12.1202 O.2     1  UNL1       -0.2748
     15 H          61.1437   90.0600   13.3321 H       1  UNL1        0.1498
     16 C          61.4855   87.7356   10.7573 C.3     1  UNL1        0.0884
     17 C          62.4104   86.7333   10.1329 C.3     1  UNL1        0.0135
     18 C          62.4142   86.9329   11.6195 C.3     1  UNL1        0.0135
     19 C          60.7949   88.2524    9.5302 C.ar    1  UNL1       -0.0040
     20 C          60.6913   89.7301    9.2941 C.ar    1  UNL1       -0.0021
     21 C          60.0005   90.2470    8.0670 C.ar    1  UNL1        0.0111
     22 C          59.4135   89.2861    7.0760 C.ar    1  UNL1        0.0585
     23 CL         58.7228   89.8030    5.8489 Cl      1  UNL1       -0.0822
     24 C          59.5171   87.8085    7.3121 C.ar    1  UNL1        0.0225
     25 C          60.2078   87.2916    8.5392 C.ar    1  UNL1        0.0550
     26 CL         60.2194   85.9435    8.6096 Cl      1  UNL1       -0.0825
     27 C          64.0239   88.7620   13.1601 C.3     1  UNL1        0.0562
     28 C          63.7113   88.3194   14.5588 C.ar    1  UNL1       -0.0094
     29 C          63.2673   89.3229   15.5814 C.ar    1  UNL1       -0.0025
     30 C          62.9546   88.8803   16.9801 C.ar    1  UNL1        0.0111
     31 C          63.0860   87.4342   17.3562 C.ar    1  UNL1        0.0585
     32 CL         62.7733   86.9916   18.7548 Cl      1  UNL1       -0.0822
     33 C          63.5300   86.4306   16.3335 C.ar    1  UNL1        0.0225
     34 C          63.8426   86.8732   14.9348 C.ar    1  UNL1        0.0546
     35 CL         64.2866   85.8697   13.9122 Cl      1  UNL1       -0.0825
@<TRIPOS>BOND
     1     3     2    1
     2     3     4    1
     3     4     5    1
     4     5     6   am
     5     6     7    2
     6     6     1    1
     7     1    27    1
     8    27    28    1
     9    28    29   ar
    10    29    30   ar
    11    30    31   ar
    12    31    32    1
    13    31    33   ar
    14    33    34   ar
    15    34    35    1
    16     1    12    1
    17    12    13   am
    18    13    14    2
    19    13    16    1
    20    16    19    1
    21    19    20   ar
    22    20    21   ar
    23    21    22   ar
    24    22    23    1
    25    22    24   ar
    26    24    25   ar
    27    25    26    1
    28    16    17    1
    29    17    18    1
    30     5     8    1
    31     8     9    1
    32     9    10    1
    33    10     3    1
    34    34    28   ar
    35    18    16    1
    36    25    19   ar
    37    12    15    1
    38    10    11    1
@<TRIPOS>MOLECULE
*****
 35 38 0 0 0
SMALL
GASTEIGER

@<TRIPOS>ATOM
      1 C          63.1015   85.9481   12.9929 C.3     1  UNL1        0.1532
      2 C          65.4079   91.8003   14.7768 C.3     1  UNL1        0.0189
      3 C          64.5577   90.8313   14.0099 C.3     1  UNL1        0.0742
      4 C          64.6798   89.3588   14.2683 C.3     1  UNL1        0.1091
      5 N          63.8296   88.3897   13.5014 N.am    1  UNL1       -0.2754
      6 C          63.9517   86.9172   13.7598 C.2     1  UNL1        0.2439
      7 O          64.9239   86.4137   14.7852 O.2     1  UNL1       -0.2731
      8 C          62.8574   88.8932   12.4760 C.3     1  UNL1        0.1105
      9 C          62.7354   90.3657   12.2176 C.3     1  UNL1        0.0904
     10 N          63.5856   91.3347   12.9845 N.3     1  UNL1       -0.2957
     11 H          62.9479   91.9667   13.4687 H       1  UNL1        0.1233
     12 N          62.0492   85.1487   13.7026 N.am    1  UNL1       -0.2978
     13 C          62.3757   83.7856   14.2366 C.2     1  UNL1        0.2257
     14 O          61.3276   83.1937   14.8479 O.2     1  UNL1       -0.2748
     15 H          61.1442   85.5188   13.8179 H       1  UNL1        0.1498
     16 C          63.7545   83.2217   14.0610 C.3     1  UNL1        0.0884
     17 C          65.2172   82.9785   14.2872 C.3     1  UNL1        0.0135
     18 C          64.4750   83.9491   15.1572 C.3     1  UNL1        0.0135
     19 C          63.5129   82.2985   12.9037 C.ar    1  UNL1       -0.0040
     20 C          63.8580   82.7355   11.5110 C.ar    1  UNL1       -0.0021
     21 C          63.6164   81.8121   10.3536 C.ar    1  UNL1        0.0111
     22 C          63.0297   80.4519   10.5893 C.ar    1  UNL1        0.0585
     23 CL         62.7881   79.5287    9.4321 Cl      1  UNL1       -0.0822
     24 C          62.6845   80.0150   11.9821 C.ar    1  UNL1        0.0225
     25 C          62.9261   80.9382   13.1393 C.ar    1  UNL1        0.0550
     26 CL         62.5654   80.4033   14.3252 Cl      1  UNL1       -0.0825
     27 C          63.3037   85.7784   11.5164 C.3     1  UNL1        0.0562
     28 C          62.2060   86.1447   10.5620 C.ar    1  UNL1       -0.0094
     29 C          61.0359   86.9528   11.0393 C.ar    1  UNL1       -0.0025
     30 C          59.9381   87.3192   10.0850 C.ar    1  UNL1        0.0111
     31 C          60.0104   86.8774    8.6534 C.ar    1  UNL1        0.0585
     32 CL         58.9127   87.2437    7.6991 Cl      1  UNL1       -0.0822
     33 C          61.1806   86.0692    8.1760 C.ar    1  UNL1        0.0225
     34 C          62.2783   85.7029    9.1304 C.ar    1  UNL1        0.0546
     35 CL         63.4484   84.8948    8.6531 Cl      1  UNL1       -0.0825
@<TRIPOS>BOND
     1     3     2    1
     2     3     4    1
     3     4     5    1
     4     5     6   am
     5     6     7    2
     6     6     1    1
     7     1    27    1
     8    27    28    1
     9    28    29   ar
    10    29    30   ar
    11    30    31   ar
    12    31    32    1
    13    31    33   ar
    14    33    34   ar
    15    34    35    1
    16     1    12    1
    17    12    13   am
    18    13    14    2
    19    13    16    1
    20    16    19    1
    21    19    20   ar
    22    20    21   ar
    23    21    22   ar
    24    22    23    1
    25    22    24   ar
    26    24    25   ar
    27    25    26    1
    28    16    17    1
    29    17    18    1
    30     5     8    1
    31     8     9    1
    32     9    10    1
    33    10     3    1
    34    34    28   ar
    35    18    16    1
    36    25    19   ar
    37    12    15    1
    38    10    11    1
@<TRIPOS>MOLECULE
*****
 35 38 0 0 0
SMALL
GASTEIGER

@<TRIPOS>ATOM
      1 C          62.7726   89.4416   13.3752 C.3     1  UNL1        0.1532
      2 C          67.3143   93.4041   15.9094 C.3     1  UNL1        0.0189
      3 C          66.5862   92.6563   14.8320 C.3     1  UNL1        0.0742
      4 C          65.4075   91.7967   15.1809 C.3     1  UNL1        0.1091
      5 N          64.6794   91.0490   14.1036 N.am    1  UNL1       -0.2754
      6 C          63.5007   90.1894   14.4526 C.2     1  UNL1        0.2439
      7 O          63.0502   90.0775   15.8789 O.2     1  UNL1       -0.2731
      8 C          65.1300   91.1609   12.6772 C.3     1  UNL1        0.1105
      9 C          66.3086   92.0205   12.3283 C.3     1  UNL1        0.0904
     10 N          67.0367   92.7682   13.4057 N.3     1  UNL1       -0.2957
     11 H          66.9921   93.7570   13.1595 H       1  UNL1        0.1233
     12 N          61.3333   89.7519   13.0883 N.am    1  UNL1       -0.2978
     13 C          60.9083   90.1209   11.6979 C.2     1  UNL1        0.2257
     14 O          59.5854   90.3710   11.5997 O.2     1  UNL1       -0.2748
     15 H          60.6676   89.7135   13.8126 H       1  UNL1        0.1498
     16 C          61.9226   90.1795   10.5943 C.3     1  UNL1        0.0884
     17 C          63.0866   90.6493    9.7733 C.3     1  UNL1        0.0135
     18 C          62.7063   91.3840   11.0245 C.3     1  UNL1        0.0135
     19 C          61.4912   88.9953    9.7809 C.ar    1  UNL1       -0.0040
     20 C          62.2196   87.6906    9.9110 C.ar    1  UNL1       -0.0021
     21 C          61.7882   86.5064    9.0975 C.ar    1  UNL1        0.0111
     22 C          60.6283   86.6271    8.1540 C.ar    1  UNL1        0.0585
     23 CL         60.1970   85.4430    7.3405 Cl      1  UNL1       -0.0822
     24 C          59.9000   87.9319    8.0239 C.ar    1  UNL1        0.0225
     25 C          60.3313   89.1160    8.8373 C.ar    1  UNL1        0.0550
     26 CL         59.5799   90.2142    8.6099 Cl      1  UNL1       -0.0825
     27 C          63.4837   88.3836   12.5847 C.3     1  UNL1        0.0562
     28 C          63.4602   86.9575   13.0492 C.ar    1  UNL1       -0.0094
     29 C          62.6831   85.9309   12.2797 C.ar    1  UNL1       -0.0025
     30 C          62.6597   84.5048   12.7442 C.ar    1  UNL1        0.0111
     31 C          63.4133   84.1053   13.9780 C.ar    1  UNL1        0.0585
     32 CL         63.3898   82.6792   14.4425 Cl      1  UNL1       -0.0822
     33 C          64.1904   85.1320   14.7475 C.ar    1  UNL1        0.0225
     34 C          64.2139   86.5581   14.2831 C.ar    1  UNL1        0.0546
     35 CL         64.9910   87.5848   15.0525 Cl      1  UNL1       -0.0825
@<TRIPOS>BOND
     1     3     2    1
     2     3     4    1
     3     4     5    1
     4     5     6   am
     5     6     7    2
     6     6     1    1
     7     1    27    1
     8    27    28    1
     9    28    29   ar
    10    29    30   ar
    11    30    31   ar
    12    31    32    1
    13    31    33   ar
    14    33    34   ar
    15    34    35    1
    16     1    12    1
    17    12    13   am
    18    13    14    2
    19    13    16    1
    20    16    19    1
    21    19    20   ar
    22    20    21   ar
    23    21    22   ar
    24    22    23    1
    25    22    24   ar
    26    24    25   ar
    27    25    26    1
    28    16    17    1
    29    17    18    1
    30     5     8    1
    31     8     9    1
    32     9    10    1
    33    10     3    1
    34    34    28   ar
    35    18    16    1
    36    25    19   ar
    37    12    15    1
    38    10    11    1
@<TRIPOS>MOLECULE
*****
 35 38 0 0 0
SMALL
GASTEIGER

@<TRIPOS>ATOM
      1 C          62.7257   85.5487   12.4687 C.3     1  UNL1        0.1532
      2 C          60.1604   89.5831    8.0085 C.3     1  UNL1        0.0189
      3 C          60.5084   88.2647    8.6337 C.3     1  UNL1        0.0742
      4 C          61.2690   88.2250    9.9259 C.3     1  UNL1        0.1091
      5 N          61.6170   86.9067   10.5511 N.am    1  UNL1       -0.2754
      6 C          62.3776   86.8670   11.8434 C.2     1  UNL1        0.2439
      7 O          62.7902   88.1456   12.5105 O.2     1  UNL1       -0.2731
      8 C          61.2045   85.6281    9.8841 C.3     1  UNL1        0.1105
      9 C          60.4439   85.6678    8.5919 C.3     1  UNL1        0.0904
     10 N          60.0959   86.9861    7.9667 N.3     1  UNL1       -0.2957
     11 H          59.0797   87.0127    7.8820 H       1  UNL1        0.1233
     12 N          62.0034   85.0887   13.7003 N.am    1  UNL1       -0.2978
     13 C          62.7175   85.0520   15.0188 C.2     1  UNL1        0.2257
     14 O          61.9361   84.6167   16.0299 O.2     1  UNL1       -0.2748
     15 H          61.0606   84.8109   13.6432 H       1  UNL1        0.1498
     16 C          64.1539   85.4753   15.1058 C.3     1  UNL1        0.0884
     17 C          65.6514   85.3946   15.0760 C.3     1  UNL1        0.0135
     18 C          64.8288   84.1712   14.7995 C.3     1  UNL1        0.0135
     19 C          63.9780   86.9264   15.4424 C.ar    1  UNL1       -0.0040
     20 C          64.4817   87.9808   14.5020 C.ar    1  UNL1       -0.0021
     21 C          64.3058   89.4320   14.8386 C.ar    1  UNL1        0.0111
     22 C          63.6261   89.8286   16.1156 C.ar    1  UNL1        0.0585
     23 CL         63.4502   91.2797   16.4521 Cl      1  UNL1       -0.0822
     24 C          63.1224   88.7742   17.0560 C.ar    1  UNL1        0.0225
     25 C          63.2983   87.3231   16.7194 C.ar    1  UNL1        0.0550
     26 CL         62.7942   86.4981   17.6617 Cl      1  UNL1       -0.0825
     27 C          63.7959   84.6903   11.8623 C.3     1  UNL1        0.0562
     28 C          63.5281   83.2403   11.5869 C.ar    1  UNL1       -0.0094
     29 C          63.1615   82.3185   12.7119 C.ar    1  UNL1       -0.0025
     30 C          62.8937   80.8685   12.4365 C.ar    1  UNL1        0.0111
     31 C          62.9925   80.3404   11.0361 C.ar    1  UNL1        0.0585
     32 CL         62.7247   78.8904   10.7607 Cl      1  UNL1       -0.0822
     33 C          63.3592   81.2622    9.9110 C.ar    1  UNL1        0.0225
     34 C          63.6270   82.7122   10.1864 C.ar    1  UNL1        0.0546
     35 CL         63.9937   83.6340    9.0614 Cl      1  UNL1       -0.0825
@<TRIPOS>BOND
     1     3     2    1
     2     3     4    1
     3     4     5    1
     4     5     6   am
     5     6     7    2
     6     6     1    1
     7     1    27    1
     8    27    28    1
     9    28    29   ar
    10    29    30   ar
    11    30    31   ar
    12    31    32    1
    13    31    33   ar
    14    33    34   ar
    15    34    35    1
    16     1    12    1
    17    12    13   am
    18    13    14    2
    19    13    16    1
    20    16    19    1
    21    19    20   ar
    22    20    21   ar
    23    21    22   ar
    24    22    23    1
    25    22    24   ar
    26    24    25   ar
    27    25    26    1
    28    16    17    1
    29    17    18    1
    30     5     8    1
    31     8     9    1
    32     9    10    1
    33    10     3    1
    34    34    28   ar
    35    18    16    1
    36    25    19   ar
    37    12    15    1
    38    10    11    1
@<TRIPOS>MOLECULE
*****
 35 38 0 0 0
SMALL
GASTEIGER

@<TRIPOS>ATOM
      1 C          60.5507   94.6212   -2.2973 C.3     1  UNL1        0.1532
      2 C          54.1072   95.3081   -1.4257 C.3     1  UNL1        0.0189
      3 C          55.3884   94.5802   -1.7062 C.3     1  UNL1        0.0742
      4 C          56.6883   95.3285   -1.7213 C.3     1  UNL1        0.1091
      5 N          57.9695   94.6006   -2.0018 N.am    1  UNL1       -0.2754
      6 C          59.2694   95.3490   -2.0169 C.2     1  UNL1        0.2439
      7 O          59.2881   96.8252   -1.7516 O.2     1  UNL1       -0.2731
      8 C          57.9509   93.1244   -2.2670 C.3     1  UNL1        0.1105
      9 C          56.6510   92.3761   -2.2519 C.3     1  UNL1        0.0904
     10 N          55.3698   93.1040   -1.9715 N.3     1  UNL1       -0.2957
     11 H          54.9538   92.6627   -1.1513 H       1  UNL1        0.1233
     12 N          60.8277   93.3063   -1.6306 N.am    1  UNL1       -0.2978
     13 C          61.1067   93.2563   -0.1577 C.2     1  UNL1        0.2257
     14 O          61.3363   92.0048    0.2934 O.2     1  UNL1       -0.2748
     15 H          60.8263   92.4761   -2.1598 H       1  UNL1        0.1498
     16 C          61.1088   94.5211    0.6486 C.3     1  UNL1        0.0884
     17 C          60.6408   95.5998    1.5799 C.3     1  UNL1        0.0135
     18 C          59.7557   94.4243    1.2886 C.3     1  UNL1        0.0135
     19 C          62.4627   95.0573    0.2886 C.ar    1  UNL1       -0.0040
     20 C          62.5806   96.3196   -0.5129 C.ar    1  UNL1       -0.0021
     21 C          63.9346   96.8558   -0.8729 C.ar    1  UNL1        0.0111
     22 C          65.1704   96.1295   -0.4313 C.ar    1  UNL1        0.0585
     23 CL         66.5243   96.6656   -0.7913 Cl      1  UNL1       -0.0822
     24 C          65.0525   94.8671    0.3703 C.ar    1  UNL1        0.0225
     25 C          63.6987   94.3310    0.7302 C.ar    1  UNL1        0.0550
     26 CL         63.7573   93.1913    1.4514 Cl      1  UNL1       -0.0825
     27 C          61.5549   95.2081   -3.2444 C.3     1  UNL1        0.0562
     28 C          62.4712   94.3076   -4.0188 C.ar    1  UNL1       -0.0094
     29 C          63.4867   93.4717   -3.2978 C.ar    1  UNL1       -0.0025
     30 C          64.4030   92.5713   -4.0722 C.ar    1  UNL1        0.0111
     31 C          64.3037   92.5067   -5.5675 C.ar    1  UNL1        0.0585
     32 CL         65.2200   91.6063   -6.3419 Cl      1  UNL1       -0.0822
     33 C          63.2881   93.3427   -6.2885 C.ar    1  UNL1        0.0225
     34 C          62.3718   94.2431   -5.5141 C.ar    1  UNL1        0.0546
     35 CL         61.3562   95.0791   -6.2351 Cl      1  UNL1       -0.0825
@<TRIPOS>BOND
     1     3     2    1
     2     3     4    1
     3     4     5    1
     4     5     6   am
     5     6     7    2
     6     6     1    1
     7     1    27    1
     8    27    28    1
     9    28    29   ar
    10    29    30   ar
    11    30    31   ar
    12    31    32    1
    13    31    33   ar
    14    33    34   ar
    15    34    35    1
    16     1    12    1
    17    12    13   am
    18    13    14    2
    19    13    16    1
    20    16    19    1
    21    19    20   ar
    22    20    21   ar
    23    21    22   ar
    24    22    23    1
    25    22    24   ar
    26    24    25   ar
    27    25    26    1
    28    16    17    1
    29    17    18    1
    30     5     8    1
    31     8     9    1
    32     9    10    1
    33    10     3    1
    34    34    28   ar
    35    18    16    1
    36    25    19   ar
    37    12    15    1
    38    10    11    1
@<TRIPOS>MOLECULE
*****
 35 38 0 0 0
SMALL
GASTEIGER

@<TRIPOS>ATOM
      1 C          60.5460   94.9734   -0.9422 C.3     1  UNL1        0.1532
      2 C          56.0114   91.2243   -3.7938 C.3     1  UNL1        0.0189
      3 C          56.6547   92.5007   -3.3388 C.3     1  UNL1        0.0742
      4 C          57.9569   92.4607   -2.5955 C.3     1  UNL1        0.1091
      5 N          58.6003   93.7371   -2.1406 N.am    1  UNL1       -0.2754
      6 C          59.9026   93.6971   -1.3972 C.2     1  UNL1        0.2439
      7 O          60.5614   92.3808   -1.1088 O.2     1  UNL1       -0.2731
      8 C          57.9415   95.0534   -2.4289 C.3     1  UNL1        0.1105
      9 C          56.6393   95.0933   -3.1723 C.3     1  UNL1        0.0904
     10 N          55.9959   93.8170   -3.6272 N.3     1  UNL1       -0.2957
     11 H          55.8979   93.8815   -4.6405 H       1  UNL1        0.1233
     12 N          59.9989   95.7069    0.2464 N.am    1  UNL1       -0.2978
     13 C          60.3942   95.2901    1.6320 C.2     1  UNL1        0.2257
     14 O          59.8208   96.0445    2.5935 O.2     1  UNL1       -0.2748
     15 H          59.3805   96.4619    0.1171 H       1  UNL1        0.1498
     16 C          61.3364   94.1397    1.8291 C.3     1  UNL1        0.0884
     17 C          61.8313   92.7658    2.1715 C.3     1  UNL1        0.0135
     18 C          60.3753   93.0962    2.3162 C.3     1  UNL1        0.0135
     19 C          62.6249   94.7837    1.4104 C.ar    1  UNL1       -0.0040
     20 C          62.9028   96.2118    1.7753 C.ar    1  UNL1       -0.0021
     21 C          64.1913   96.8558    1.3566 C.ar    1  UNL1        0.0111
     22 C          65.2017   96.0716    0.5731 C.ar    1  UNL1        0.0585
     23 CL         66.4901   96.7156    0.1544 Cl      1  UNL1       -0.0822
     24 C          64.9238   94.6435    0.2082 C.ar    1  UNL1        0.0225
     25 C          63.6354   93.9995    0.6268 C.ar    1  UNL1        0.0550
     26 CL         63.5327   92.7149    0.2247 Cl      1  UNL1       -0.0825
     27 C          61.7363   95.5163   -1.6759 C.3     1  UNL1        0.0562
     28 C          62.1506   94.9117   -2.9846 C.ar    1  UNL1       -0.0094
     29 C          63.1351   93.7803   -3.0099 C.ar    1  UNL1       -0.0025
     30 C          63.5493   93.1756   -4.3186 C.ar    1  UNL1        0.0111
     31 C          62.9791   93.7024   -5.6021 C.ar    1  UNL1        0.0585
     32 CL         63.3934   93.0977   -6.9108 Cl      1  UNL1       -0.0822
     33 C          61.9946   94.8338   -5.5769 C.ar    1  UNL1        0.0225
     34 C          61.5803   95.4385   -4.2681 C.ar    1  UNL1        0.0546
     35 CL         60.5959   96.5699   -4.2429 Cl      1  UNL1       -0.0825
@<TRIPOS>BOND
     1     3     2    1
     2     3     4    1
     3     4     5    1
     4     5     6   am
     5     6     7    2
     6     6     1    1
     7     1    27    1
     8    27    28    1
     9    28    29   ar
    10    29    30   ar
    11    30    31   ar
    12    31    32    1
    13    31    33   ar
    14    33    34   ar
    15    34    35    1
    16     1    12    1
    17    12    13   am
    18    13    14    2
    19    13    16    1
    20    16    19    1
    21    19    20   ar
    22    20    21   ar
    23    21    22   ar
    24    22    23    1
    25    22    24   ar
    26    24    25   ar
    27    25    26    1
    28    16    17    1
    29    17    18    1
    30     5     8    1
    31     8     9    1
    32     9    10    1
    33    10     3    1
    34    34    28   ar
    35    18    16    1
    36    25    19   ar
    37    12    15    1
    38    10    11    1
@<TRIPOS>MOLECULE
*****
 35 38 0 0 0
SMALL
GASTEIGER

@<TRIPOS>ATOM
      1 C          62.3040   87.5067   11.4202 C.3     1  UNL1        0.1532
      2 C          64.4845   81.8787   13.9344 C.3     1  UNL1        0.0189
      3 C          63.7210   82.7609   12.9916 C.3     1  UNL1        0.0742
      4 C          63.7760   84.2516   13.1487 C.3     1  UNL1        0.1091
      5 N          63.0125   85.1338   12.2059 N.am    1  UNL1       -0.2754
      6 C          63.0675   86.6246   12.3630 C.2     1  UNL1        0.2439
      7 O          63.8860   87.2331   13.4628 O.2     1  UNL1       -0.2731
      8 C          62.1940   84.5252   11.1060 C.3     1  UNL1        0.1105
      9 C          62.1390   83.0345   10.9490 C.3     1  UNL1        0.0904
     10 N          62.9025   82.1524   11.8918 N.3     1  UNL1       -0.2957
     11 H          63.5408   81.5962   11.3229 H       1  UNL1        0.1233
     12 N          61.0788   88.2299   11.8958 N.am    1  UNL1       -0.2978
     13 C          60.9435   89.7062   11.6678 C.2     1  UNL1        0.2257
     14 O          59.7886   90.2109   12.1517 O.2     1  UNL1       -0.2748
     15 H          60.3635   87.7355   12.3575 H       1  UNL1        0.1498
     16 C          62.0333   90.4595   10.9643 C.3     1  UNL1        0.0884
     17 C          62.8050   91.1177    9.8593 C.3     1  UNL1        0.0135
     18 C          61.4962   90.4472    9.5638 C.3     1  UNL1        0.0135
     19 C          62.9488   90.7335   12.1204 C.ar    1  UNL1       -0.0040
     20 C          62.6117   90.2091   13.4847 C.ar    1  UNL1       -0.0021
     21 C          63.5273   90.4831   14.6409 C.ar    1  UNL1        0.0111
     22 C          64.7800   91.2814   14.4327 C.ar    1  UNL1        0.0585
     23 CL         65.6956   91.5554   15.5888 Cl      1  UNL1       -0.0822
     24 C          65.1171   91.8058   13.0684 C.ar    1  UNL1        0.0225
     25 C          64.2016   91.5318   11.9122 C.ar    1  UNL1        0.0550
     26 CL         64.6400   92.0682   10.7535 Cl      1  UNL1       -0.0825
     27 C          62.7656   87.6658   10.0019 C.3     1  UNL1        0.0562
     28 C          62.3099   86.6965    8.9517 C.ar    1  UNL1       -0.0094
     29 C          63.2806   85.7147    8.3654 C.ar    1  UNL1       -0.0025
     30 C          62.8250   84.7455    7.3152 C.ar    1  UNL1        0.0111
     31 C          61.3986   84.7579    6.8513 C.ar    1  UNL1        0.0585
     32 CL         60.9429   83.7887    5.8012 Cl      1  UNL1       -0.0822
     33 C          60.4278   85.7397    7.4377 C.ar    1  UNL1        0.0225
     34 C          60.8834   86.7090    8.4879 C.ar    1  UNL1        0.0546
     35 CL         59.9127   87.6907    9.0742 Cl      1  UNL1       -0.0825
@<TRIPOS>BOND
     1     3     2    1
     2     3     4    1
     3     4     5    1
     4     5     6   am
     5     6     7    2
     6     6     1    1
     7     1    27    1
     8    27    28    1
     9    28    29   ar
    10    29    30   ar
    11    30    31   ar
    12    31    32    1
    13    31    33   ar
    14    33    34   ar
    15    34    35    1
    16     1    12    1
    17    12    13   am
    18    13    14    2
    19    13    16    1
    20    16    19    1
    21    19    20   ar
    22    20    21   ar
    23    21    22   ar
    24    22    23    1
    25    22    24   ar
    26    24    25   ar
    27    25    26    1
    28    16    17    1
    29    17    18    1
    30     5     8    1
    31     8     9    1
    32     9    10    1
    33    10     3    1
    34    34    28   ar
    35    18    16    1
    36    25    19   ar
    37    12    15    1
    38    10    11    1
@<TRIPOS>MOLECULE
*****
 35 38 0 0 0
SMALL
GASTEIGER

@<TRIPOS>ATOM
      1 C          60.3871   94.0157   -2.1671 C.3     1  UNL1        0.1532
      2 C          57.4547   96.8549   -7.2750 C.3     1  UNL1        0.0189
      3 C          57.8418   95.7312   -6.3598 C.3     1  UNL1        0.0742
      4 C          58.7274   95.9971   -5.1787 C.3     1  UNL1        0.1091
      5 N          59.1145   94.8734   -4.2635 N.am    1  UNL1       -0.2754
      6 C          60.0000   95.1394   -3.0823 C.2     1  UNL1        0.2439
      7 O          60.4985   96.5289   -2.8164 O.2     1  UNL1       -0.2731
      8 C          58.6160   93.4839   -4.5294 C.3     1  UNL1        0.1105
      9 C          57.7305   93.2181   -5.7106 C.3     1  UNL1        0.0904
     10 N          57.3434   94.3417   -6.6258 N.3     1  UNL1       -0.2957
     11 H          56.3245   94.3883   -6.6202 H       1  UNL1        0.1233
     12 N          59.3321   93.2786   -1.3967 N.am    1  UNL1       -0.2978
     13 C          59.1696   93.5225    0.0744 C.2     1  UNL1        0.2257
     14 O          58.1809   92.7864    0.6250 O.2     1  UNL1       -0.2748
     15 H          58.7463   92.6347   -1.8566 H       1  UNL1        0.1498
     16 C          60.0621   94.5035    0.7751 C.3     1  UNL1        0.0884
     17 C          60.6182   95.8127    1.2511 C.3     1  UNL1        0.0135
     18 C          59.4033   95.7893    0.3717 C.3     1  UNL1        0.0135
     19 C          61.0309   93.5584    1.4218 C.ar    1  UNL1       -0.0040
     20 C          62.3634   93.2977    0.7843 C.ar    1  UNL1       -0.0021
     21 C          63.3322   92.3526    1.4312 C.ar    1  UNL1        0.0111
     22 C          62.9684   91.6683    2.7154 C.ar    1  UNL1        0.0585
     23 CL         63.9372   90.7233    3.3622 Cl      1  UNL1       -0.0822
     24 C          61.6360   91.9290    3.3529 C.ar    1  UNL1        0.0225
     25 C          60.6672   92.8741    2.7061 C.ar    1  UNL1        0.0550
     26 CL         59.5151   93.0038    3.3979 Cl      1  UNL1       -0.0825
     27 C          61.8292   93.6292   -2.0224 C.3     1  UNL1        0.0562
     28 C          62.8325   94.0799   -3.0423 C.ar    1  UNL1       -0.0094
     29 C          62.9107   93.3916   -4.3727 C.ar    1  UNL1       -0.0025
     30 C          63.9140   93.8423   -5.3926 C.ar    1  UNL1        0.0111
     31 C          64.8392   94.9814   -5.0821 C.ar    1  UNL1        0.0585
     32 CL         65.8425   95.4321   -6.1020 Cl      1  UNL1       -0.0822
     33 C          64.7610   95.6699   -3.7516 C.ar    1  UNL1        0.0225
     34 C          63.7577   95.2191   -2.7317 C.ar    1  UNL1        0.0546
     35 CL         63.6796   95.9075   -1.4013 Cl      1  UNL1       -0.0825
@<TRIPOS>BOND
     1     3     2    1
     2     3     4    1
     3     4     5    1
     4     5     6   am
     5     6     7    2
     6     6     1    1
     7     1    27    1
     8    27    28    1
     9    28    29   ar
    10    29    30   ar
    11    30    31   ar
    12    31    32    1
    13    31    33   ar
    14    33    34   ar
    15    34    35    1
    16     1    12    1
    17    12    13   am
    18    13    14    2
    19    13    16    1
    20    16    19    1
    21    19    20   ar
    22    20    21   ar
    23    21    22   ar
    24    22    23    1
    25    22    24   ar
    26    24    25   ar
    27    25    26    1
    28    16    17    1
    29    17    18    1
    30     5     8    1
    31     8     9    1
    32     9    10    1
    33    10     3    1
    34    34    28   ar
    35    18    16    1
    36    25    19   ar
    37    12    15    1
    38    10    11    1
