@<TRIPOS>MOLECULE
*****
 29 33 0 0 0
SMALL
GASTEIGER

@<TRIPOS>ATOM
      1 C          64.2812   88.3472   14.4572 C.3     1  UNL1        0.0294
      2 C          63.7420   89.6898   14.8535 C.3     1  UNL1        0.0666
      3 S          64.5550   90.9264   14.6092 S.3     1  UNL1       -0.0756
      4 C          65.4411   92.7756   11.3136 C.ar    1  UNL1        0.2029
      5 N          64.3637   91.8441   10.8427 N.ar    1  UNL1       -0.1250
      6 N          63.9007   91.0380   12.0199 N.ar    1  UNL1       -0.1220
      7 C          64.6918   91.4713   13.2184 C.ar    1  UNL1        0.1933
      8 N          65.6438   92.5452   12.7819 N.ar    1  UNL1       -0.2860
      9 C          66.6261   93.2627   13.6596 C.3     1  UNL1        0.1341
     10 C          68.2092   92.2034    9.6827 C.3     1  UNL1        0.0556
     11 C          67.4573   93.5009    9.7156 C.ar    1  UNL1        0.1001
     12 N          67.8458   94.7633    9.0045 N.ar    1  UNL1       -0.2085
     13 C          66.8135   95.8065    9.3147 C.ar    1  UNL1        0.2849
     14 O          65.7871   95.1888   10.2174 O.2     1  UNL1       -0.4283
     15 C          66.1850   93.7639   10.4652 C.ar    1  UNL1        0.1964
     16 C          64.1390   87.1779   15.3859 C.3     1  UNL1        0.0730
     17 N          63.9272   85.8006   14.8307 N.3     1  UNL1       -0.2726
     18 C          64.1285   84.5113   15.5703 C.3     1  UNL1        0.0721
     19 C          63.8026   83.3847   14.6351 C.3     1  UNL1        0.0190
     20 C          63.3999   83.9778   13.3175 C.3     1  UNL1        0.0201
     21 C          63.1472   82.6701   12.6276 C.3     1  UNL1        0.0061
     22 C          62.9458   83.9594   11.8880 C.3     1  UNL1        0.0237
     23 C          63.4769   85.4709   13.4384 C.3     1  UNL1        0.0724
     24 C          62.5674   84.6932   10.6356 C.ar    1  UNL1       -0.0225
     25 C          61.4459   85.6890   10.6597 C.ar    1  UNL1       -0.0043
     26 C          61.0675   86.4228    9.4074 C.ar    1  UNL1       -0.0003
     27 C          61.8106   86.1608    8.1310 C.ar    1  UNL1       -0.0000
     28 C          62.9321   85.1650    8.1070 C.ar    1  UNL1       -0.0003
     29 C          63.3105   84.4312    9.3593 C.ar    1  UNL1       -0.0043
@<TRIPOS>BOND
     1    10    11    1
     2    11    12   ar
     3    12    13   ar
     4    13    14   ar
     5    14    15   ar
     6    15     4    1
     7     4     5   ar
     8     5     6   ar
     9     6     7   ar
    10     7     3    1
    11     3     2    1
    12     2     1    1
    13     1    16    1
    14    16    17    1
    15    17    18    1
    16    18    19    1
    17    20    19    1
    18    20    21    1
    19    21    22    1
    20    22    24    1
    21    24    25   ar
    22    25    26   ar
    23    26    27   ar
    24    27    28   ar
    25    28    29   ar
    26    20    23    1
    27     7     8   ar
    28     8     9    1
    29    15    11   ar
    30     8     4   ar
    31    23    17    1
    32    22    20    1
    33    29    24   ar
@<TRIPOS>MOLECULE
*****
 29 33 0 0 0
SMALL
GASTEIGER

@<TRIPOS>ATOM
      1 C          63.2051   89.8043   12.8901 C.3     1  UNL1        0.0294
      2 C          63.7409   90.7514   13.9226 C.3     1  UNL1        0.0666
      3 S          65.1986   91.1051   13.9313 S.3     1  UNL1       -0.0756
      4 C          66.1261   94.2617   11.8718 C.ar    1  UNL1        0.2029
      5 N          66.5752   94.6685   13.2440 N.ar    1  UNL1       -0.1250
      6 N          66.2824   93.5356   14.1825 N.ar    1  UNL1       -0.1220
      7 C          65.6523   92.4286   13.3903 C.ar    1  UNL1        0.1933
      8 N          65.5558   92.8772   11.9623 N.ar    1  UNL1       -0.2860
      9 C          64.9884   92.0813   10.8245 C.3     1  UNL1        0.1341
     10 C          68.0201   93.6260    9.2914 C.3     1  UNL1        0.0556
     11 C          67.0999   94.8010    9.4416 C.ar    1  UNL1        0.1001
     12 N          66.8886   95.8902    8.4320 N.ar    1  UNL1       -0.2085
     13 C          65.8875   96.8555    8.9942 C.ar    1  UNL1        0.2849
     14 O          65.4800   96.3629   10.3511 O.2     1  UNL1       -0.4283
     15 C          66.2293   95.0932   10.6276 C.ar    1  UNL1        0.1964
     16 C          62.0027   90.1827   12.0772 C.3     1  UNL1        0.0730
     17 N          61.5275   89.2813   10.9765 N.3     1  UNL1       -0.2726
     18 C          60.6028   89.6653    9.8597 C.3     1  UNL1        0.0721
     19 C          60.3975   88.4589    8.9923 C.3     1  UNL1        0.0190
     20 C          61.1954   87.3292    9.5730 C.3     1  UNL1        0.0201
     21 C          60.8063   86.3147    8.5390 C.3     1  UNL1        0.0061
     22 C          61.7311   85.9306    9.6558 C.3     1  UNL1        0.0237
     23 C          61.8938   87.8375   10.7993 C.3     1  UNL1        0.0724
     24 C          62.5743   84.9014   10.3484 C.ar    1  UNL1       -0.0225
     25 C          63.5314   84.0600    9.5572 C.ar    1  UNL1       -0.0043
     26 C          64.3746   83.0308   10.2498 C.ar    1  UNL1       -0.0003
     27 C          64.2606   82.8429   11.7336 C.ar    1  UNL1       -0.0000
     28 C          63.3035   83.6843   12.5248 C.ar    1  UNL1       -0.0003
     29 C          62.4603   84.7135   11.8322 C.ar    1  UNL1       -0.0043
@<TRIPOS>BOND
     1    10    11    1
     2    11    12   ar
     3    12    13   ar
     4    13    14   ar
     5    14    15   ar
     6    15     4    1
     7     4     5   ar
     8     5     6   ar
     9     6     7   ar
    10     7     3    1
    11     3     2    1
    12     2     1    1
    13     1    16    1
    14    16    17    1
    15    17    18    1
    16    18    19    1
    17    20    19    1
    18    20    21    1
    19    21    22    1
    20    22    24    1
    21    24    25   ar
    22    25    26   ar
    23    26    27   ar
    24    27    28   ar
    25    28    29   ar
    26    20    23    1
    27     7     8   ar
    28     8     9    1
    29    15    11   ar
    30     8     4   ar
    31    23    17    1
    32    22    20    1
    33    29    24   ar
@<TRIPOS>MOLECULE
*****
 29 33 0 0 0
SMALL
GASTEIGER

@<TRIPOS>ATOM
      1 C          60.3332   89.5621   11.9876 C.3     1  UNL1        0.0294
      2 C          61.7122   90.0544   11.6620 C.3     1  UNL1        0.0666
      3 S          62.7955   89.9898   12.6975 S.3     1  UNL1       -0.0756
      4 C          65.4024   92.7991   12.0828 C.ar    1  UNL1        0.2029
      5 N          65.5458   92.5889   13.5611 N.ar    1  UNL1       -0.1250
      6 N          64.5868   91.5109   13.9713 N.ar    1  UNL1       -0.1220
      7 C          63.8506   91.0549   12.7465 C.ar    1  UNL1        0.1933
      8 N          64.3546   91.8510   11.5794 N.ar    1  UNL1       -0.2860
      9 C          63.8921   91.7218   10.1583 C.3     1  UNL1        0.1341
     10 C          67.8259   92.0882   10.0163 C.3     1  UNL1        0.0556
     11 C          67.2855   93.4576   10.3038 C.ar    1  UNL1        0.1001
     12 N          67.7642   94.7408    9.6918 N.ar    1  UNL1       -0.2085
     13 C          66.9461   95.8605   10.2635 C.ar    1  UNL1        0.2849
     14 O          65.9618   95.2695   11.2288 O.2     1  UNL1       -0.4283
     15 C          66.1715   93.7844   11.2536 C.ar    1  UNL1        0.1964
     16 C          59.7506   88.4068   11.2288 C.3     1  UNL1        0.0730
     17 N          60.6544   87.4483   10.5115 N.3     1  UNL1       -0.2726
     18 C          60.9263   87.4289    9.0365 C.3     1  UNL1        0.0721
     19 C          61.8850   86.3096    8.7567 C.3     1  UNL1        0.0190
     20 C          62.2055   85.6374   10.0587 C.3     1  UNL1        0.0201
     21 C          63.1379   84.6139    9.4815 C.3     1  UNL1        0.0061
     22 C          62.8659   84.6334   10.9565 C.3     1  UNL1        0.0237
     23 C          61.4450   86.3411   11.1433 C.3     1  UNL1        0.0724
     24 C          63.0902   84.0651   12.3264 C.ar    1  UNL1       -0.0225
     25 C          62.5828   82.6939   12.6618 C.ar    1  UNL1       -0.0043
     26 C          62.8071   82.1255   14.0317 C.ar    1  UNL1       -0.0003
     27 C          63.5388   82.9283   15.0662 C.ar    1  UNL1       -0.0000
     28 C          64.0462   84.2995   14.7307 C.ar    1  UNL1       -0.0003
     29 C          63.8219   84.8679   13.3608 C.ar    1  UNL1       -0.0043
@<TRIPOS>BOND
     1    10    11    1
     2    11    12   ar
     3    12    13   ar
     4    13    14   ar
     5    14    15   ar
     6    15     4    1
     7     4     5   ar
     8     5     6   ar
     9     6     7   ar
    10     7     3    1
    11     3     2    1
    12     2     1    1
    13     1    16    1
    14    16    17    1
    15    17    18    1
    16    18    19    1
    17    20    19    1
    18    20    21    1
    19    21    22    1
    20    22    24    1
    21    24    25   ar
    22    25    26   ar
    23    26    27   ar
    24    27    28   ar
    25    28    29   ar
    26    20    23    1
    27     7     8   ar
    28     8     9    1
    29    15    11   ar
    30     8     4   ar
    31    23    17    1
    32    22    20    1
    33    29    24   ar
@<TRIPOS>MOLECULE
*****
 29 33 0 0 0
SMALL
GASTEIGER

@<TRIPOS>ATOM
      1 C          60.1421   88.8531    9.1279 C.3     1  UNL1        0.0294
      2 C          60.3386   89.9717   10.1078 C.3     1  UNL1        0.0666
      3 S          61.2642   89.7929   11.2745 S.3     1  UNL1       -0.0756
      4 C          64.5645   91.6174   12.1937 C.ar    1  UNL1        0.2029
      5 N          64.4145   91.9990   10.7508 N.ar    1  UNL1       -0.1250
      6 N          63.1599   91.3620   10.2308 N.ar    1  UNL1       -0.1220
      7 C          62.5346   90.5867   11.3524 C.ar    1  UNL1        0.1933
      8 N          63.4026   90.7445   12.5655 N.ar    1  UNL1       -0.2860
      9 C          63.1527   90.1362   13.9137 C.3     1  UNL1        0.1341
     10 C          66.2291   94.4194   12.0278 C.3     1  UNL1        0.0556
     11 C          66.4455   93.3232   13.0286 C.ar    1  UNL1        0.1001
     12 N          67.4651   93.3225   14.1288 N.ar    1  UNL1       -0.2085
     13 C          67.3301   92.0341   14.8850 C.ar    1  UNL1        0.2849
     14 O          66.2271   91.2386   14.2522 O.2     1  UNL1       -0.4283
     15 C          65.6804   92.0353   13.1048 C.ar    1  UNL1        0.1964
     16 C          59.9963   87.4431    9.6185 C.3     1  UNL1        0.0730
     17 N          61.1054   86.4561    9.4045 N.3     1  UNL1       -0.2726
     18 C          61.7629   86.1391    8.0941 C.3     1  UNL1        0.0721
     19 C          62.8155   85.0999    8.3432 C.3     1  UNL1        0.0190
     20 C          62.8086   84.7746    9.8075 C.3     1  UNL1        0.0201
     21 C          63.9108   83.7591    9.7478 C.3     1  UNL1        0.0061
     22 C          63.2533   84.0761   11.0582 C.3     1  UNL1        0.0237
     23 C          61.7516   85.6129   10.4635 C.3     1  UNL1        0.0724
     24 C          63.1305   83.8558   12.5368 C.ar    1  UNL1       -0.0225
     25 C          62.4473   82.6262   13.0578 C.ar    1  UNL1       -0.0043
     26 C          62.3245   82.4060   14.5364 C.ar    1  UNL1       -0.0003
     27 C          62.8848   83.4153   15.4941 C.ar    1  UNL1       -0.0000
     28 C          63.5680   84.6450   14.9732 C.ar    1  UNL1       -0.0003
     29 C          63.6908   84.8652   13.4945 C.ar    1  UNL1       -0.0043
@<TRIPOS>BOND
     1    10    11    1
     2    11    12   ar
     3    12    13   ar
     4    13    14   ar
     5    14    15   ar
     6    15     4    1
     7     4     5   ar
     8     5     6   ar
     9     6     7   ar
    10     7     3    1
    11     3     2    1
    12     2     1    1
    13     1    16    1
    14    16    17    1
    15    17    18    1
    16    18    19    1
    17    20    19    1
    18    20    21    1
    19    21    22    1
    20    22    24    1
    21    24    25   ar
    22    25    26   ar
    23    26    27   ar
    24    27    28   ar
    25    28    29   ar
    26    20    23    1
    27     7     8   ar
    28     8     9    1
    29    15    11   ar
    30     8     4   ar
    31    23    17    1
    32    22    20    1
    33    29    24   ar
@<TRIPOS>MOLECULE
*****
 29 33 0 0 0
SMALL
GASTEIGER

@<TRIPOS>ATOM
      1 C          64.3519   88.4518   14.4934 C.3     1  UNL1        0.0294
      2 C          63.9237   89.5417   15.4310 C.3     1  UNL1        0.0666
      3 S          64.1158   90.9791   15.0477 S.3     1  UNL1       -0.0756
      4 C          65.5882   92.1701   11.6596 C.ar    1  UNL1        0.2029
      5 N          64.2620   91.6222   11.2228 N.ar    1  UNL1       -0.1250
      6 N          63.5490   91.1094   12.4387 N.ar    1  UNL1       -0.1220
      7 C          64.4346   91.3403   13.6272 C.ar    1  UNL1        0.1933
      8 N          65.6949   91.9959   13.1457 N.ar    1  UNL1       -0.2860
      9 C          66.8577   92.4053   14.0003 C.3     1  UNL1        0.1341
     10 C          66.0245   95.3622   11.1398 C.3     1  UNL1        0.0556
     11 C          66.8262   94.2516   10.5283 C.ar    1  UNL1        0.1001
     12 N          67.9691   94.4132    9.5704 N.ar    1  UNL1       -0.2085
     13 C          68.4750   93.0460    9.2174 C.ar    1  UNL1        0.2849
     14 O          67.6447   92.0393    9.9571 O.2     1  UNL1       -0.4283
     15 C          66.6257   92.7844   10.7672 C.ar    1  UNL1        0.1964
     16 C          64.2107   87.0147   14.8993 C.3     1  UNL1        0.0730
     17 N          63.8729   85.9750   13.8723 N.3     1  UNL1       -0.2726
     18 C          64.2428   84.5226   13.9333 C.3     1  UNL1        0.0721
     19 C          63.7043   83.8551   12.7027 C.3     1  UNL1        0.0190
     20 C          63.0016   84.8950   11.8811 C.3     1  UNL1        0.0201
     21 C          62.5921   83.9696   10.7738 C.3     1  UNL1        0.0061
     22 C          62.2222   85.4220   10.7129 C.3     1  UNL1        0.0237
     23 C          63.1058   86.2051   12.6040 C.3     1  UNL1        0.0724
     24 C          61.5586   86.5648   10.0032 C.ar    1  UNL1       -0.0225
     25 C          61.9505   87.9766   10.3250 C.ar    1  UNL1       -0.0043
     26 C          61.2869   89.1194    9.6153 C.ar    1  UNL1       -0.0003
     27 C          60.2315   88.8505    8.5839 C.ar    1  UNL1       -0.0000
     28 C          59.8397   87.4388    8.2621 C.ar    1  UNL1       -0.0003
     29 C          60.5032   86.2959    8.9718 C.ar    1  UNL1       -0.0043
@<TRIPOS>BOND
     1    10    11    1
     2    11    12   ar
     3    12    13   ar
     4    13    14   ar
     5    14    15   ar
     6    15     4    1
     7     4     5   ar
     8     5     6   ar
     9     6     7   ar
    10     7     3    1
    11     3     2    1
    12     2     1    1
    13     1    16    1
    14    16    17    1
    15    17    18    1
    16    18    19    1
    17    20    19    1
    18    20    21    1
    19    21    22    1
    20    22    24    1
    21    24    25   ar
    22    25    26   ar
    23    26    27   ar
    24    27    28   ar
    25    28    29   ar
    26    20    23    1
    27     7     8   ar
    28     8     9    1
    29    15    11   ar
    30     8     4   ar
    31    23    17    1
    32    22    20    1
    33    29    24   ar
@<TRIPOS>MOLECULE
*****
 29 33 0 0 0
SMALL
GASTEIGER

@<TRIPOS>ATOM
      1 C          63.7378   85.9869   16.2602 C.3     1  UNL1        0.0294
      2 C          63.1718   87.0471   17.1578 C.3     1  UNL1        0.0666
      3 S          62.4129   88.2000   16.5708 S.3     1  UNL1       -0.0756
      4 C          64.4898   91.0011   14.8659 C.ar    1  UNL1        0.2029
      5 N          64.0416   91.6940   16.1186 N.ar    1  UNL1       -0.1250
      6 N          63.2091   90.7291   16.9097 N.ar    1  UNL1       -0.1220
      7 C          63.1427   89.4398   16.1460 C.ar    1  UNL1        0.1933
      8 N          63.9342   89.6078   14.8829 N.ar    1  UNL1       -0.2860
      9 C          64.1348   88.5656   13.8229 C.3     1  UNL1        0.1341
     10 C          67.6821   91.6434   15.0799 C.3     1  UNL1        0.0556
     11 C          66.8109   91.8920   13.8844 C.ar    1  UNL1        0.1001
     12 N          67.2541   92.4795   12.5773 N.ar    1  UNL1       -0.2085
     13 C          66.0607   92.5473   11.6711 C.ar    1  UNL1        0.2849
     14 O          64.8799   92.0017   12.4182 O.2     1  UNL1       -0.4283
     15 C          65.3436   91.5967   13.7860 C.ar    1  UNL1        0.1964
     16 C          62.8304   84.9655   15.6410 C.3     1  UNL1        0.0730
     17 N          63.1331   84.4228   14.2758 N.3     1  UNL1       -0.2726
     18 C          63.8904   83.1633   13.9756 C.3     1  UNL1        0.0721
     19 C          63.9569   83.0065   12.4853 C.3     1  UNL1        0.0190
     20 C          63.2407   84.1690   11.8644 C.3     1  UNL1        0.0201
     21 C          63.4668   83.7509   10.4418 C.3     1  UNL1        0.0061
     22 C          62.7095   85.0104   10.7419 C.3     1  UNL1        0.0237
     23 C          62.7315   85.0444   12.9710 C.3     1  UNL1        0.0724
     24 C          61.9655   86.2233   10.2672 C.ar    1  UNL1       -0.0225
     25 C          60.8608   86.0801    9.2626 C.ar    1  UNL1       -0.0043
     26 C          60.1169   87.2930    8.7879 C.ar    1  UNL1       -0.0003
     27 C          60.4777   88.6491    9.3177 C.ar    1  UNL1       -0.0000
     28 C          61.5824   88.7923   10.3223 C.ar    1  UNL1       -0.0003
     29 C          62.3263   87.5794   10.7970 C.ar    1  UNL1       -0.0043
@<TRIPOS>BOND
     1    10    11    1
     2    11    12   ar
     3    12    13   ar
     4    13    14   ar
     5    14    15   ar
     6    15     4    1
     7     4     5   ar
     8     5     6   ar
     9     6     7   ar
    10     7     3    1
    11     3     2    1
    12     2     1    1
    13     1    16    1
    14    16    17    1
    15    17    18    1
    16    18    19    1
    17    20    19    1
    18    20    21    1
    19    21    22    1
    20    22    24    1
    21    24    25   ar
    22    25    26   ar
    23    26    27   ar
    24    27    28   ar
    25    28    29   ar
    26    20    23    1
    27     7     8   ar
    28     8     9    1
    29    15    11   ar
    30     8     4   ar
    31    23    17    1
    32    22    20    1
    33    29    24   ar
@<TRIPOS>MOLECULE
*****
 29 33 0 0 0
SMALL
GASTEIGER

@<TRIPOS>ATOM
      1 C          62.9779   83.9927    9.0951 C.3     1  UNL1        0.0294
      2 C          63.9664   83.4220   10.0684 C.3     1  UNL1        0.0666
      3 S          63.5079   82.4657   11.1291 S.3     1  UNL1       -0.0756
      4 C          63.4488   84.0853   14.6561 C.ar    1  UNL1        0.2029
      5 N          64.1041   82.7690   14.9525 N.ar    1  UNL1       -0.1250
      6 N          64.2060   82.0021   13.6674 N.ar    1  UNL1       -0.1220
      7 C          63.6136   82.8444   12.5767 C.ar    1  UNL1        0.1933
      8 N          63.1457   84.1320   13.1877 N.ar    1  UNL1       -0.2860
      9 C          62.4898   85.2669   12.4584 C.3     1  UNL1        0.1341
     10 C          64.6330   87.1259   14.6040 C.3     1  UNL1        0.0556
     11 C          63.6936   86.5630   15.6290 C.ar    1  UNL1        0.1001
     12 N          63.1335   87.2988   16.8100 N.ar    1  UNL1       -0.2085
     13 C          62.2430   86.3560   17.5639 C.ar    1  UNL1        0.2849
     14 O          62.2528   85.0375   16.8488 O.2     1  UNL1       -0.4283
     15 C          63.1493   85.1654   15.6529 C.ar    1  UNL1        0.1964
     16 C          63.1392   85.3995    8.6002 C.3     1  UNL1        0.0730
     17 N          62.1047   86.4342    8.9308 N.3     1  UNL1       -0.2726
     18 C          60.6519   86.3777    8.5616 C.3     1  UNL1        0.0721
     19 C          59.9907   87.6156    9.0913 C.3     1  UNL1        0.0190
     20 C          61.0348   88.4370    9.7879 C.3     1  UNL1        0.0201
     21 C          60.1151   89.5518   10.1895 C.3     1  UNL1        0.0061
     22 C          61.5679   89.6082   10.5586 C.3     1  UNL1        0.0237
     23 C          62.3413   87.7068    9.6886 C.3     1  UNL1        0.0724
     24 C          62.7144   90.3170   11.2168 C.ar    1  UNL1       -0.0225
     25 C          63.5065   91.3345   10.4505 C.ar    1  UNL1       -0.0043
     26 C          64.6530   92.0432   11.1086 C.ar    1  UNL1       -0.0003
     27 C          65.0074   91.7345   12.5330 C.ar    1  UNL1       -0.0000
     28 C          64.2153   90.7169   13.2994 C.ar    1  UNL1       -0.0003
     29 C          63.0688   90.0082   12.6412 C.ar    1  UNL1       -0.0043
@<TRIPOS>BOND
     1    10    11    1
     2    11    12   ar
     3    12    13   ar
     4    13    14   ar
     5    14    15   ar
     6    15     4    1
     7     4     5   ar
     8     5     6   ar
     9     6     7   ar
    10     7     3    1
    11     3     2    1
    12     2     1    1
    13     1    16    1
    14    16    17    1
    15    17    18    1
    16    18    19    1
    17    20    19    1
    18    20    21    1
    19    21    22    1
    20    22    24    1
    21    24    25   ar
    22    25    26   ar
    23    26    27   ar
    24    27    28   ar
    25    28    29   ar
    26    20    23    1
    27     7     8   ar
    28     8     9    1
    29    15    11   ar
    30     8     4   ar
    31    23    17    1
    32    22    20    1
    33    29    24   ar
@<TRIPOS>MOLECULE
*****
 29 33 0 0 0
SMALL
GASTEIGER

@<TRIPOS>ATOM
      1 C          60.1702   88.6957   11.1630 C.3     1  UNL1        0.0294
      2 C          60.7455   90.0765   11.0502 C.3     1  UNL1        0.0666
      3 S          62.2295   90.2639   10.9392 S.3     1  UNL1       -0.0756
      4 C          64.8002   90.9406   13.7676 C.ar    1  UNL1        0.2029
      5 N          63.9400   89.8889   14.4032 N.ar    1  UNL1       -0.1250
      6 N          62.8723   89.5074   13.4211 N.ar    1  UNL1       -0.1220
      7 C          63.0727   90.3233   12.1784 C.ar    1  UNL1        0.1933
      8 N          64.2641   91.2091   12.3925 N.ar    1  UNL1       -0.2860
      9 C          64.8217   92.1909   11.4050 C.3     1  UNL1        0.1341
     10 C          64.8568   92.4069   16.6824 C.3     1  UNL1        0.0556
     11 C          66.0139   92.2808   15.7363 C.ar    1  UNL1        0.1001
     12 N          67.4002   92.8065   15.9638 N.ar    1  UNL1       -0.2085
     13 C          68.2310   92.4574   14.7647 C.ar    1  UNL1        0.2849
     14 O          67.3582   91.7159   13.7960 O.2     1  UNL1       -0.4283
     15 C          65.9879   91.6068   14.3965 C.ar    1  UNL1        0.1964
     16 C          60.0119   87.8466    9.9367 C.3     1  UNL1        0.0730
     17 N          61.0377   86.8019    9.6103 N.3     1  UNL1       -0.2726
     18 C          61.5766   86.4917    8.2452 C.3     1  UNL1        0.0721
     19 C          62.5765   85.3821    8.3829 C.3     1  UNL1        0.0190
     20 C          62.6556   85.0067    9.8330 C.3     1  UNL1        0.0201
     21 C          63.6840   83.9285    9.6600 C.3     1  UNL1        0.0061
     22 C          63.1451   84.2388   11.0250 C.3     1  UNL1        0.0237
     23 C          61.7046   85.8842   10.5916 C.3     1  UNL1        0.0724
     24 C          63.1166   83.9746   12.5013 C.ar    1  UNL1       -0.0225
     25 C          63.6855   84.9831   13.4548 C.ar    1  UNL1       -0.0043
     26 C          63.6569   84.7189   14.9311 C.ar    1  UNL1       -0.0003
     27 C          63.0594   83.4462   15.4538 C.ar    1  UNL1       -0.0000
     28 C          62.4905   82.4377   14.5003 C.ar    1  UNL1       -0.0003
     29 C          62.5191   82.7019   13.0240 C.ar    1  UNL1       -0.0043
@<TRIPOS>BOND
     1    10    11    1
     2    11    12   ar
     3    12    13   ar
     4    13    14   ar
     5    14    15   ar
     6    15     4    1
     7     4     5   ar
     8     5     6   ar
     9     6     7   ar
    10     7     3    1
    11     3     2    1
    12     2     1    1
    13     1    16    1
    14    16    17    1
    15    17    18    1
    16    18    19    1
    17    20    19    1
    18    20    21    1
    19    21    22    1
    20    22    24    1
    21    24    25   ar
    22    25    26   ar
    23    26    27   ar
    24    27    28   ar
    25    28    29   ar
    26    20    23    1
    27     7     8   ar
    28     8     9    1
    29    15    11   ar
    30     8     4   ar
    31    23    17    1
    32    22    20    1
    33    29    24   ar
@<TRIPOS>MOLECULE
*****
 29 33 0 0 0
SMALL
GASTEIGER

@<TRIPOS>ATOM
      1 C          63.8329   83.6958   14.4580 C.3     1  UNL1        0.0294
      2 C          63.3707   83.1303   13.1477 C.3     1  UNL1        0.0666
      3 S          64.1785   83.3601   11.9049 S.3     1  UNL1       -0.0756
      4 C          62.1945   85.5544    9.3920 C.ar    1  UNL1        0.2029
      5 N          63.0489   84.7470    8.4602 N.ar    1  UNL1       -0.1250
      6 N          63.8961   83.8267    9.2882 N.ar    1  UNL1       -0.1220
      7 C          63.5653   84.0654   10.7316 C.ar    1  UNL1        0.1933
      8 N          62.5137   85.1331   10.7959 N.ar    1  UNL1       -0.2860
      9 C          61.8907   85.6830   12.0446 C.3     1  UNL1        0.1341
     10 C          62.3378   88.7292   10.1335 C.3     1  UNL1        0.0556
     11 C          61.2622   88.0588    9.3313 C.ar    1  UNL1        0.1001
     12 N          60.0635   88.7300    8.7290 N.ar    1  UNL1       -0.2085
     13 C          59.2569   87.6855    8.0159 C.ar    1  UNL1        0.2849
     14 O          59.9570   86.3688    8.1775 O.2     1  UNL1       -0.4283
     15 C          61.1963   86.5995    8.9904 C.ar    1  UNL1        0.1964
     16 C          64.5977   84.9858   14.4902 C.3     1  UNL1        0.0730
     17 N          64.0818   86.1437   15.2920 N.3     1  UNL1       -0.2726
     18 C          63.3528   86.0553   16.6000 C.3     1  UNL1        0.0721
     19 C          63.0249   87.4504   17.0430 C.3     1  UNL1        0.0190
     20 C          63.5512   88.4010   16.0089 C.3     1  UNL1        0.0201
     21 C          63.0931   89.6519   16.6982 C.3     1  UNL1        0.0061
     22 C          63.8221   89.7403   15.3903 C.3     1  UNL1        0.0237
     23 C          64.2044   87.5934   14.9267 C.3     1  UNL1        0.0724
     24 C          64.3995   90.5646   14.2780 C.ar    1  UNL1       -0.0225
     25 C          65.7292   91.2360   14.4543 C.ar    1  UNL1       -0.0043
     26 C          66.3066   92.0603   13.3420 C.ar    1  UNL1       -0.0003
     27 C          65.5541   92.2132   12.0534 C.ar    1  UNL1       -0.0000
     28 C          64.2244   91.5419   11.8771 C.ar    1  UNL1       -0.0003
     29 C          63.6470   90.7176   12.9894 C.ar    1  UNL1       -0.0043
@<TRIPOS>BOND
     1    10    11    1
     2    11    12   ar
     3    12    13   ar
     4    13    14   ar
     5    14    15   ar
     6    15     4    1
     7     4     5   ar
     8     5     6   ar
     9     6     7   ar
    10     7     3    1
    11     3     2    1
    12     2     1    1
    13     1    16    1
    14    16    17    1
    15    17    18    1
    16    18    19    1
    17    20    19    1
    18    20    21    1
    19    21    22    1
    20    22    24    1
    21    24    25   ar
    22    25    26   ar
    23    26    27   ar
    24    27    28   ar
    25    28    29   ar
    26    20    23    1
    27     7     8   ar
    28     8     9    1
    29    15    11   ar
    30     8     4   ar
    31    23    17    1
    32    22    20    1
    33    29    24   ar
