@<TRIPOS>MOLECULE
*****
 32 35 0 0 0
SMALL
GASTEIGER

@<TRIPOS>ATOM
      1 C          63.6757   89.1889   15.9535 C.ar    1  UNL1        0.0678
      2 C          63.0075   88.6457   17.1817 C.ar    1  UNL1        0.0055
      3 C          62.8843   87.1634   17.3751 C.ar    1  UNL1        0.0016
      4 C          63.4293   86.2241   16.3403 C.ar    1  UNL1        0.0181
      5 C          64.0975   86.7673   15.1121 C.ar    1  UNL1        0.0922
      6 C          64.2207   88.2497   14.9186 C.ar    1  UNL1        0.1576
      7 F          64.8889   88.7928   13.6904 F       1  UNL1       -0.2027
      8 C          63.7989   90.6712   15.7601 C.2     1  UNL1        0.2014
      9 O          63.2160   91.6109   16.7737 O.2     1  UNL1       -0.2864
     10 C          62.4639   90.7978   11.0784 C.2     1  UNL1        0.0974
     11 C          63.4919   91.4430   10.1971 C.2     1  UNL1        0.2421
     12 N          64.7674   91.9642   10.7901 N.2     1  UNL1       -0.0304
     13 C          65.0147   91.8403   12.2643 C.2     1  UNL1        0.3721
     14 N          66.1685   92.2579   13.1270 N.2     1  UNL1       -0.0307
     15 C          65.8535   91.8707   14.5416 C.2     1  UNL1        0.2390
     16 C          64.5051   91.2140   14.5531 C.2     1  UNL1        0.0895
     17 C          63.9866   91.1952   13.1456 C.2     1  UNL1        0.0782
     18 C          62.7112   90.6739   12.5527 C.3     1  UNL1        0.0751
     19 N          59.9130   89.7553    9.8926 N.1     1  UNL1       -0.1910
     20 C          61.1884   90.2765   10.4855 C.1     1  UNL1        0.1003
     21 N          64.6425   85.8281   14.0773 N.pl3   1  UNL1       -0.2127
     22 H          65.4363   86.0806   13.5526 H       1  UNL1        0.1738
     23 S          63.9780   84.5041   13.8419 S.O2    1  UNL1        0.0758
     24 O          62.8583   85.1942   13.1209 O.2     1  UNL1       -0.1499
     25 O          65.0977   83.8139   14.5629 O.2     1  UNL1       -0.1499
     26 C          63.3135   83.1800   13.6065 C.ar    1  UNL1        0.1524
     27 C          62.2764   82.6800   14.5679 C.ar    1  UNL1        0.0225
     28 C          61.6118   81.3559   14.3326 C.ar    1  UNL1        0.0015
     29 C          61.9844   80.5319   13.1359 C.ar    1  UNL1        0.0024
     30 C          63.0215   81.0319   12.1744 C.ar    1  UNL1        0.0310
     31 C          63.6860   82.3560   12.4097 C.ar    1  UNL1        0.1589
     32 F          64.7231   82.8561   11.4484 F       1  UNL1       -0.2027
@<TRIPOS>BOND
     1    19    20    3
     2    20    10    1
     3    10    11    2
     4    11    12    1
     5    12    13    2
     6    13    14    1
     7    14    15    2
     8    15    16    1
     9    16     8    1
    10     8     9    2
    11     8     1    1
    12     1     2   ar
    13     2     3   ar
    14     3     4   ar
    15     4     5   ar
    16     5    21    1
    17    21    23    1
    18    23    24    2
    19    23    25    2
    20    23    26    1
    21    26    27   ar
    22    27    28   ar
    23    28    29   ar
    24    29    30   ar
    25    30    31   ar
    26    31    32    1
    27     5     6   ar
    28     6     7    1
    29    16    17    2
    30    17    18    1
    31    18    10    1
    32    17    13    1
    33     6     1   ar
    34    31    26   ar
    35    21    22    1
@<TRIPOS>MOLECULE
*****
 32 35 0 0 0
SMALL
GASTEIGER

@<TRIPOS>ATOM
      1 C          63.3803   88.4932   16.2260 C.ar    1  UNL1        0.0678
      2 C          62.6894   87.9827   17.4556 C.ar    1  UNL1        0.0055
      3 C          62.6471   86.5096   17.7351 C.ar    1  UNL1        0.0016
      4 C          63.2959   85.5470   16.7851 C.ar    1  UNL1        0.0181
      5 C          63.9869   86.0576   15.5555 C.ar    1  UNL1        0.0922
      6 C          64.0291   87.5307   15.2759 C.ar    1  UNL1        0.1576
      7 F          64.7202   88.0412   14.0464 F       1  UNL1       -0.2027
      8 C          63.4226   89.9663   15.9464 C.2     1  UNL1        0.2014
      9 O          63.1586   90.9471   17.0502 O.2     1  UNL1       -0.2864
     10 C          67.0343   92.7859   14.2966 C.2     1  UNL1        0.0974
     11 C          66.9530   93.0309   12.8190 C.2     1  UNL1        0.2421
     12 N          65.8373   92.4267   12.0188 N.2     1  UNL1       -0.0304
     13 C          64.8030   91.5775   12.6962 C.2     1  UNL1        0.3721
     14 N          63.5973   90.8551   12.1722 N.2     1  UNL1       -0.0307
     15 C          62.9335   90.1637   13.3260 C.2     1  UNL1        0.2390
     16 C          63.7288   90.4587   14.5630 C.2     1  UNL1        0.0895
     17 C          64.8843   91.3325   14.1738 C.2     1  UNL1        0.0782
     18 C          65.9999   91.9367   14.9739 C.3     1  UNL1        0.0751
     19 N          69.2655   93.9943   15.8969 N.1     1  UNL1       -0.1910
     20 C          68.1499   93.3901   15.0967 C.1     1  UNL1        0.1003
     21 N          64.6357   85.0950   14.6055 N.pl3   1  UNL1       -0.2127
     22 H          65.5317   85.2870   14.2456 H       1  UNL1        0.1738
     23 S          63.9194   83.8397   14.2040 S.O2    1  UNL1        0.0758
     24 O          63.2403   84.5828   13.0920 O.2     1  UNL1       -0.1499
     25 O          64.5984   83.0965   15.3160 O.2     1  UNL1       -0.1499
     26 C          63.2030   82.5844   13.8025 C.ar    1  UNL1        0.1524
     27 C          61.9853   82.1415   14.5582 C.ar    1  UNL1        0.0225
     28 C          61.2690   80.8862   14.1567 C.ar    1  UNL1        0.0015
     29 C          61.7703   80.0739   12.9997 C.ar    1  UNL1        0.0024
     30 C          62.9880   80.5168   12.2440 C.ar    1  UNL1        0.0310
     31 C          63.7044   81.7721   12.6454 C.ar    1  UNL1        0.1589
     32 F          64.9220   82.2151   11.8899 F       1  UNL1       -0.2027
@<TRIPOS>BOND
     1    19    20    3
     2    20    10    1
     3    10    11    2
     4    11    12    1
     5    12    13    2
     6    13    14    1
     7    14    15    2
     8    15    16    1
     9    16     8    1
    10     8     9    2
    11     8     1    1
    12     1     2   ar
    13     2     3   ar
    14     3     4   ar
    15     4     5   ar
    16     5    21    1
    17    21    23    1
    18    23    24    2
    19    23    25    2
    20    23    26    1
    21    26    27   ar
    22    27    28   ar
    23    28    29   ar
    24    29    30   ar
    25    30    31   ar
    26    31    32    1
    27     5     6   ar
    28     6     7    1
    29    16    17    2
    30    17    18    1
    31    18    10    1
    32    17    13    1
    33     6     1   ar
    34    31    26   ar
    35    21    22    1
@<TRIPOS>MOLECULE
*****
 32 35 0 0 0
SMALL
GASTEIGER

@<TRIPOS>ATOM
      1 C          60.9951   88.7621    9.8058 C.ar    1  UNL1        0.0678
      2 C          59.9563   88.6179    8.7335 C.ar    1  UNL1        0.0055
      3 C          59.9106   87.3743    7.8960 C.ar    1  UNL1        0.0016
      4 C          60.9036   86.2749    8.1308 C.ar    1  UNL1        0.0181
      5 C          61.9425   86.4192    9.2033 C.ar    1  UNL1        0.0922
      6 C          61.9882   87.6628   10.0408 C.ar    1  UNL1        0.1576
      7 F          63.0271   87.8069   11.1132 F       1  UNL1       -0.2027
      8 C          61.0409   90.0057   10.6433 C.2     1  UNL1        0.2014
      9 O          59.7707   90.5946   11.1817 O.2     1  UNL1       -0.2864
     10 C          63.7497   90.0078   14.6904 C.2     1  UNL1        0.0974
     11 C          65.0119   90.8050   14.5457 C.2     1  UNL1        0.2421
     12 N          65.3195   91.4938   13.2492 N.2     1  UNL1       -0.0304
     13 C          64.3647   91.3854   12.0974 C.2     1  UNL1        0.3721
     14 N          64.3994   91.9504   10.7083 N.2     1  UNL1       -0.0307
     15 C          63.1585   91.5024    9.9945 C.2     1  UNL1        0.2390
     16 C          62.3569   90.6604   10.9425 C.2     1  UNL1        0.0895
     17 C          63.1024   90.5881   12.2421 C.2     1  UNL1        0.0782
     18 C          62.7949   89.8993   13.5386 C.3     1  UNL1        0.0751
     19 N          63.1346   88.6301   17.2834 N.1     1  UNL1       -0.1910
     20 C          63.4421   89.3189   15.9869 C.1     1  UNL1        0.1003
     21 N          62.9355   85.3198    9.4382 N.pl3   1  UNL1       -0.2127
     22 H          63.6418   85.1445    8.7751 H       1  UNL1        0.1738
     23 S          62.8525   84.4875   10.6833 S.O2    1  UNL1        0.0758
     24 O          64.1183   83.7821   10.2963 O.2     1  UNL1       -0.1499
     25 O          61.5866   85.1929   11.0704 O.2     1  UNL1       -0.1499
     26 C          62.7694   83.6552   11.9286 C.ar    1  UNL1        0.1524
     27 C          62.4089   82.2021   11.8367 C.ar    1  UNL1        0.0225
     28 C          62.3258   81.3698   13.0818 C.ar    1  UNL1        0.0015
     29 C          62.6032   81.9906   14.4188 C.ar    1  UNL1        0.0024
     30 C          62.9637   83.4438   14.5107 C.ar    1  UNL1        0.0310
     31 C          63.0468   84.2761   13.2656 C.ar    1  UNL1        0.1589
     32 F          63.4072   85.7292   13.3574 F       1  UNL1       -0.2027
@<TRIPOS>BOND
     1    19    20    3
     2    20    10    1
     3    10    11    2
     4    11    12    1
     5    12    13    2
     6    13    14    1
     7    14    15    2
     8    15    16    1
     9    16     8    1
    10     8     9    2
    11     8     1    1
    12     1     2   ar
    13     2     3   ar
    14     3     4   ar
    15     4     5   ar
    16     5    21    1
    17    21    23    1
    18    23    24    2
    19    23    25    2
    20    23    26    1
    21    26    27   ar
    22    27    28   ar
    23    28    29   ar
    24    29    30   ar
    25    30    31   ar
    26    31    32    1
    27     5     6   ar
    28     6     7    1
    29    16    17    2
    30    17    18    1
    31    18    10    1
    32    17    13    1
    33     6     1   ar
    34    31    26   ar
    35    21    22    1
@<TRIPOS>MOLECULE
*****
 32 35 0 0 0
SMALL
GASTEIGER

@<TRIPOS>ATOM
      1 C          63.4016   88.4757   15.6883 C.ar    1  UNL1        0.0678
      2 C          62.8050   88.2181   17.0402 C.ar    1  UNL1        0.0055
      3 C          62.8797   86.8472   17.6442 C.ar    1  UNL1        0.0016
      4 C          63.5511   85.7337   16.8962 C.ar    1  UNL1        0.0181
      5 C          64.1477   85.9913   15.5443 C.ar    1  UNL1        0.0922
      6 C          64.0730   87.3623   14.9403 C.ar    1  UNL1        0.1576
      7 F          64.6696   87.6198   13.5884 F       1  UNL1       -0.2027
      8 C          63.3269   89.8467   15.0844 C.2     1  UNL1        0.2014
      9 O          62.4202   90.1038   13.9174 O.2     1  UNL1       -0.2864
     10 C          67.1062   92.2674   13.1941 C.2     1  UNL1        0.0974
     11 C          67.6443   93.3198   14.1177 C.2     1  UNL1        0.2421
     12 N          67.0157   93.5291   15.4635 N.2     1  UNL1       -0.0304
     13 C          65.8490   92.6862   15.8856 C.2     1  UNL1        0.3721
     14 N          65.0295   92.6634   17.1417 N.2     1  UNL1       -0.0307
     15 C          63.9850   91.5970   16.9945 C.2     1  UNL1        0.2390
     16 C          64.1589   90.9606   15.6474 C.2     1  UNL1        0.0895
     17 C          65.3110   91.6338   14.9620 C.2     1  UNL1        0.0782
     18 C          65.9396   91.4245   13.6163 C.3     1  UNL1        0.0751
     19 N          68.3634   91.8487   10.5026 N.1     1  UNL1       -0.1910
     20 C          67.7348   92.0581   11.8484 C.1     1  UNL1        0.1003
     21 N          64.8191   84.8778   14.7963 N.pl3   1  UNL1       -0.2127
     22 H          65.7808   84.9313   14.5927 H       1  UNL1        0.1738
     23 S          64.0251   83.6828   14.3586 S.O2    1  UNL1        0.0758
     24 O          63.5290   84.4484   13.1680 O.2     1  UNL1       -0.1499
     25 O          64.5212   82.9171   15.5492 O.2     1  UNL1       -0.1499
     26 C          63.2312   82.4877   13.9209 C.ar    1  UNL1        0.1524
     27 C          61.9355   82.1581   14.6010 C.ar    1  UNL1        0.0225
     28 C          61.1416   80.9630   14.1634 C.ar    1  UNL1        0.0015
     29 C          61.6432   80.0977   13.0456 C.ar    1  UNL1        0.0024
     30 C          62.9389   80.4273   12.3654 C.ar    1  UNL1        0.0310
     31 C          63.7328   81.6223   12.8031 C.ar    1  UNL1        0.1589
     32 F          65.0285   81.9521   12.1230 F       1  UNL1       -0.2027
@<TRIPOS>BOND
     1    19    20    3
     2    20    10    1
     3    10    11    2
     4    11    12    1
     5    12    13    2
     6    13    14    1
     7    14    15    2
     8    15    16    1
     9    16     8    1
    10     8     9    2
    11     8     1    1
    12     1     2   ar
    13     2     3   ar
    14     3     4   ar
    15     4     5   ar
    16     5    21    1
    17    21    23    1
    18    23    24    2
    19    23    25    2
    20    23    26    1
    21    26    27   ar
    22    27    28   ar
    23    28    29   ar
    24    29    30   ar
    25    30    31   ar
    26    31    32    1
    27     5     6   ar
    28     6     7    1
    29    16    17    2
    30    17    18    1
    31    18    10    1
    32    17    13    1
    33     6     1   ar
    34    31    26   ar
    35    21    22    1
@<TRIPOS>MOLECULE
*****
 32 35 0 0 0
SMALL
GASTEIGER

@<TRIPOS>ATOM
      1 C          64.1449   84.5045   13.7546 C.ar    1  UNL1        0.0678
      2 C          64.1008   83.0197   13.9633 C.ar    1  UNL1        0.0055
      3 C          63.3645   82.1471   12.9904 C.ar    1  UNL1        0.0016
      4 C          62.6723   82.7592   11.8088 C.ar    1  UNL1        0.0181
      5 C          62.7164   84.2440   11.6001 C.ar    1  UNL1        0.0922
      6 C          63.4527   85.1167   12.5730 C.ar    1  UNL1        0.1576
      7 F          63.4968   86.6014   12.3642 F       1  UNL1       -0.2027
      8 C          64.8812   85.3771   14.7274 C.2     1  UNL1        0.2014
      9 O          66.3776   85.3136   14.8082 O.2     1  UNL1       -0.2864
     10 C          64.3496   90.2148   14.5526 C.2     1  UNL1        0.0974
     11 C          63.4904   90.7465   15.6612 C.2     1  UNL1        0.2421
     12 N          62.9013   89.8061   16.6704 N.2     1  UNL1       -0.0304
     13 C          63.1714   88.3340   16.5711 C.2     1  UNL1        0.3721
     14 N          62.7308   87.1736   17.4133 N.2     1  UNL1       -0.0307
     15 C          63.3176   85.9247   16.8251 C.2     1  UNL1        0.2390
     16 C          64.1209   86.3132   15.6195 C.2     1  UNL1        0.0895
     17 C          64.0306   87.8023   15.4625 C.2     1  UNL1        0.0782
     18 C          64.6196   88.7427   14.4532 C.3     1  UNL1        0.0751
     19 N          65.5277   92.0956   12.5340 N.1     1  UNL1       -0.1910
     20 C          64.9387   91.1552   13.5433 C.1     1  UNL1        0.1003
     21 N          62.0242   84.8561   10.4185 N.pl3   1  UNL1       -0.2127
     22 H          61.7283   84.2866    9.6720 H       1  UNL1        0.1738
     23 S          61.7829   86.3359   10.3744 S.O2    1  UNL1        0.0758
     24 O          60.9182   86.2315   11.5954 O.2     1  UNL1       -0.1499
     25 O          62.6477   86.4405    9.1532 O.2     1  UNL1       -0.1499
     26 C          61.5417   87.8158   10.3301 C.ar    1  UNL1        0.1524
     27 C          62.5550   88.7585   10.9085 C.ar    1  UNL1        0.0225
     28 C          62.3138   90.2383   10.8643 C.ar    1  UNL1        0.0015
     29 C          61.0593   90.7754   10.2417 C.ar    1  UNL1        0.0024
     30 C          60.0459   89.8328    9.6634 C.ar    1  UNL1        0.0310
     31 C          60.2871   88.3530    9.7076 C.ar    1  UNL1        0.1589
     32 F          59.2738   87.4103    9.1293 F       1  UNL1       -0.2027
@<TRIPOS>BOND
     1    19    20    3
     2    20    10    1
     3    10    11    2
     4    11    12    1
     5    12    13    2
     6    13    14    1
     7    14    15    2
     8    15    16    1
     9    16     8    1
    10     8     9    2
    11     8     1    1
    12     1     2   ar
    13     2     3   ar
    14     3     4   ar
    15     4     5   ar
    16     5    21    1
    17    21    23    1
    18    23    24    2
    19    23    25    2
    20    23    26    1
    21    26    27   ar
    22    27    28   ar
    23    28    29   ar
    24    29    30   ar
    25    30    31   ar
    26    31    32    1
    27     5     6   ar
    28     6     7    1
    29    16    17    2
    30    17    18    1
    31    18    10    1
    32    17    13    1
    33     6     1   ar
    34    31    26   ar
    35    21    22    1
@<TRIPOS>MOLECULE
*****
 32 35 0 0 0
SMALL
GASTEIGER

@<TRIPOS>ATOM
      1 C          64.4604   91.1317   12.7156 C.ar    1  UNL1        0.0678
      2 C          65.1042   92.0168   11.6898 C.ar    1  UNL1        0.0055
      3 C          64.4527   92.2124   10.3529 C.ar    1  UNL1        0.0016
      4 C          63.1574   91.5229   10.0417 C.ar    1  UNL1        0.0181
      5 C          62.5136   90.6378   11.0675 C.ar    1  UNL1        0.0922
      6 C          63.1651   90.4422   12.4044 C.ar    1  UNL1        0.1576
      7 F          62.5213   89.5571   13.4301 F       1  UNL1       -0.2027
      8 C          65.1119   90.9360   14.0525 C.2     1  UNL1        0.2014
      9 O          66.5516   91.3093   14.2470 O.2     1  UNL1       -0.2864
     10 C          64.0918   86.3226   15.2323 C.2     1  UNL1        0.0974
     11 C          63.2599   86.2099   16.4754 C.2     1  UNL1        0.2421
     12 N          62.8358   87.4478   17.2088 N.2     1  UNL1       -0.0304
     13 C          63.2436   88.7983   16.6992 C.2     1  UNL1        0.3721
     14 N          62.9776   90.1847   17.2061 N.2     1  UNL1       -0.0307
     15 C          63.6451   91.1543   16.2764 C.2     1  UNL1        0.2390
     16 C          64.3236   90.3671   15.1948 C.2     1  UNL1        0.0895
     17 C          64.0755   88.9110   15.4561 C.2     1  UNL1        0.0782
     18 C          64.4996   87.6731   14.7227 C.3     1  UNL1        0.0751
     19 N          64.9400   83.8469   13.7655 N.1     1  UNL1       -0.1910
     20 C          64.5159   85.0848   14.4989 C.1     1  UNL1        0.1003
     21 N          61.2183   89.9484   10.7563 N.pl3   1  UNL1       -0.2127
     22 H          60.3735   90.3012   11.1183 H       1  UNL1        0.1738
     23 S          61.2102   88.7214    9.8935 S.O2    1  UNL1        0.0758
     24 O          61.5485   87.8793   11.0878 O.2     1  UNL1       -0.1499
     25 O          60.8719   89.5634    8.6992 O.2     1  UNL1       -0.1499
     26 C          61.2021   87.4944    9.0306 C.ar    1  UNL1        0.1524
     27 C          62.4222   86.6256    8.9508 C.ar    1  UNL1        0.0225
     28 C          62.4141   85.3986    8.0880 C.ar    1  UNL1        0.0015
     29 C          61.1859   85.0404    7.3050 C.ar    1  UNL1        0.0024
     30 C          59.9657   85.9092    7.3848 C.ar    1  UNL1        0.0310
     31 C          59.9738   87.1362    8.2476 C.ar    1  UNL1        0.1589
     32 F          58.7537   88.0050    8.3275 F       1  UNL1       -0.2027
@<TRIPOS>BOND
     1    19    20    3
     2    20    10    1
     3    10    11    2
     4    11    12    1
     5    12    13    2
     6    13    14    1
     7    14    15    2
     8    15    16    1
     9    16     8    1
    10     8     9    2
    11     8     1    1
    12     1     2   ar
    13     2     3   ar
    14     3     4   ar
    15     4     5   ar
    16     5    21    1
    17    21    23    1
    18    23    24    2
    19    23    25    2
    20    23    26    1
    21    26    27   ar
    22    27    28   ar
    23    28    29   ar
    24    29    30   ar
    25    30    31   ar
    26    31    32    1
    27     5     6   ar
    28     6     7    1
    29    16    17    2
    30    17    18    1
    31    18    10    1
    32    17    13    1
    33     6     1   ar
    34    31    26   ar
    35    21    22    1
@<TRIPOS>MOLECULE
*****
 32 35 0 0 0
SMALL
GASTEIGER

@<TRIPOS>ATOM
      1 C          63.5490   88.5567   15.8553 C.ar    1  UNL1        0.0678
      2 C          62.8948   88.6473   17.2021 C.ar    1  UNL1        0.0055
      3 C          62.6874   87.4072   18.0200 C.ar    1  UNL1        0.0016
      4 C          63.1341   86.0764   17.4913 C.ar    1  UNL1        0.0181
      5 C          63.7884   85.9859   16.1444 C.ar    1  UNL1        0.0922
      6 C          63.9958   87.2260   15.3265 C.ar    1  UNL1        0.1576
      7 F          64.6500   87.1354   13.9797 F       1  UNL1       -0.2027
      8 C          63.7565   89.7968   15.0373 C.2     1  UNL1        0.2014
      9 O          64.6643   90.8815   15.5366 O.2     1  UNL1       -0.2864
     10 C          65.0237   92.2521   11.0271 C.2     1  UNL1        0.0974
     11 C          64.0111   92.1326    9.9270 C.2     1  UNL1        0.2421
     12 N          62.7687   91.3186   10.1364 N.2     1  UNL1       -0.0304
     13 C          62.5389   90.6241   11.4459 C.2     1  UNL1        0.3721
     14 N          61.4176   89.7589   11.9400 N.2     1  UNL1       -0.0307
     15 C          61.7373   89.3437   13.3455 C.2     1  UNL1        0.2390
     16 C          63.0561   89.9523   13.7201 C.2     1  UNL1        0.0895
     17 C          63.5515   90.7436   12.5460 C.2     1  UNL1        0.0782
     18 C          64.7939   91.5576   12.3366 C.3     1  UNL1        0.0751
     19 N          67.5085   93.8801   10.6083 N.1     1  UNL1       -0.1910
     20 C          66.2661   93.0661   10.8177 C.1     1  UNL1        0.1003
     21 N          64.2351   84.6552   15.6156 N.pl3   1  UNL1       -0.2127
     22 H          64.6413   83.9954   16.2230 H       1  UNL1        0.1738
     23 S          64.0630   84.3298   14.1615 S.O2    1  UNL1        0.0758
     24 O          62.5770   84.2597   14.3530 O.2     1  UNL1       -0.1499
     25 O          65.5490   84.3999   13.9699 O.2     1  UNL1       -0.1499
     26 C          63.8909   84.0044   12.7073 C.ar    1  UNL1        0.1524
     27 C          64.4052   82.7044   12.1638 C.ar    1  UNL1        0.0225
     28 C          64.2332   82.3789   10.7097 C.ar    1  UNL1        0.0015
     29 C          63.5468   83.3535    9.7991 C.ar    1  UNL1        0.0024
     30 C          63.0325   84.6535   10.3426 C.ar    1  UNL1        0.0310
     31 C          63.2045   84.9790   11.7967 C.ar    1  UNL1        0.1589
     32 F          62.6903   86.2789   12.3403 F       1  UNL1       -0.2027
@<TRIPOS>BOND
     1    19    20    3
     2    20    10    1
     3    10    11    2
     4    11    12    1
     5    12    13    2
     6    13    14    1
     7    14    15    2
     8    15    16    1
     9    16     8    1
    10     8     9    2
    11     8     1    1
    12     1     2   ar
    13     2     3   ar
    14     3     4   ar
    15     4     5   ar
    16     5    21    1
    17    21    23    1
    18    23    24    2
    19    23    25    2
    20    23    26    1
    21    26    27   ar
    22    27    28   ar
    23    28    29   ar
    24    29    30   ar
    25    30    31   ar
    26    31    32    1
    27     5     6   ar
    28     6     7    1
    29    16    17    2
    30    17    18    1
    31    18    10    1
    32    17    13    1
    33     6     1   ar
    34    31    26   ar
    35    21    22    1
@<TRIPOS>MOLECULE
*****
 32 35 0 0 0
SMALL
GASTEIGER

@<TRIPOS>ATOM
      1 C          61.7155   86.4122    9.6078 C.ar    1  UNL1        0.0678
      2 C          60.5150   86.1425    8.7499 C.ar    1  UNL1        0.0055
      3 C          59.6066   87.2691    8.3554 C.ar    1  UNL1        0.0016
      4 C          59.8987   88.6655    8.8188 C.ar    1  UNL1        0.0181
      5 C          61.0992   88.9352    9.6769 C.ar    1  UNL1        0.0922
      6 C          62.0076   87.8086   10.0714 C.ar    1  UNL1        0.1576
      7 F          63.2080   88.0784   10.9293 F       1  UNL1       -0.2027
      8 C          62.6238   85.2856   10.0023 C.2     1  UNL1        0.2014
      9 O          63.4647   84.6019    8.9653 O.2     1  UNL1       -0.2864
     10 C          62.7840   80.8257   11.9517 C.2     1  UNL1        0.0974
     11 C          62.8460   80.8473   13.4503 C.2     1  UNL1        0.2421
     12 N          62.8533   82.1567   14.1819 N.2     1  UNL1       -0.0304
     13 C          62.7985   83.4446   13.4149 C.2     1  UNL1        0.3721
     14 N          62.7916   84.8775   13.8586 N.2     1  UNL1       -0.0307
     15 C          62.7253   85.7416   12.6342 C.2     1  UNL1        0.2390
     16 C          62.6913   84.8427   11.4339 C.2     1  UNL1        0.0895
     17 C          62.7365   83.4231   11.9164 C.2     1  UNL1        0.0782
     18 C          62.7293   82.1136   11.1848 C.3     1  UNL1        0.0751
     19 N          62.7696   78.2068   10.4885 N.1     1  UNL1       -0.1910
     20 C          62.7768   79.5162   11.2201 C.1     1  UNL1        0.1003
     21 N          61.3913   90.3315   10.1403 N.pl3   1  UNL1       -0.2127
     22 H          60.8698   91.0873    9.7851 H       1  UNL1        0.1738
     23 S          62.4779   90.5765   11.1449 S.O2    1  UNL1        0.0758
     24 O          63.4359   90.8866   10.0333 O.2     1  UNL1       -0.1499
     25 O          61.5199   90.2664   12.2567 O.2     1  UNL1       -0.1499
     26 C          63.5645   90.8214   12.1497 C.ar    1  UNL1        0.1524
     27 C          63.6589   89.9635   13.3764 C.ar    1  UNL1        0.0225
     28 C          64.7454   90.2083   14.3811 C.ar    1  UNL1        0.0015
     29 C          65.7376   91.3112   14.1591 C.ar    1  UNL1        0.0024
     30 C          65.6432   92.1692   12.9323 C.ar    1  UNL1        0.0310
     31 C          64.5567   91.9243   11.9276 C.ar    1  UNL1        0.1589
     32 F          64.4623   92.7822   10.7008 F       1  UNL1       -0.2027
@<TRIPOS>BOND
     1    19    20    3
     2    20    10    1
     3    10    11    2
     4    11    12    1
     5    12    13    2
     6    13    14    1
     7    14    15    2
     8    15    16    1
     9    16     8    1
    10     8     9    2
    11     8     1    1
    12     1     2   ar
    13     2     3   ar
    14     3     4   ar
    15     4     5   ar
    16     5    21    1
    17    21    23    1
    18    23    24    2
    19    23    25    2
    20    23    26    1
    21    26    27   ar
    22    27    28   ar
    23    28    29   ar
    24    29    30   ar
    25    30    31   ar
    26    31    32    1
    27     5     6   ar
    28     6     7    1
    29    16    17    2
    30    17    18    1
    31    18    10    1
    32    17    13    1
    33     6     1   ar
    34    31    26   ar
    35    21    22    1
@<TRIPOS>MOLECULE
*****
 32 35 0 0 0
SMALL
GASTEIGER

@<TRIPOS>ATOM
      1 C          61.0319   88.7215    9.9474 C.ar    1  UNL1        0.0678
      2 C          60.0016   88.5598    8.8693 C.ar    1  UNL1        0.0055
      3 C          59.9860   87.3188    8.0269 C.ar    1  UNL1        0.0016
      4 C          61.0007   86.2395    8.2625 C.ar    1  UNL1        0.0181
      5 C          62.0311   86.4013    9.3406 C.ar    1  UNL1        0.0922
      6 C          62.0467   87.6423   10.1831 C.ar    1  UNL1        0.1576
      7 F          63.0770   87.8039   11.2611 F       1  UNL1       -0.2027
      8 C          61.0475   89.9625   10.7898 C.2     1  UNL1        0.2014
      9 O          60.1389   91.1080   10.4547 O.2     1  UNL1       -0.2864
     10 C          65.2745   92.3181   11.3377 C.2     1  UNL1        0.0974
     11 C          65.8686   92.1381   12.7032 C.2     1  UNL1        0.2421
     12 N          65.1588   91.3006   13.7254 N.2     1  UNL1       -0.0304
     13 C          63.8551   90.6431   13.3821 C.2     1  UNL1        0.3721
     14 N          62.9330   89.7667   14.1769 N.2     1  UNL1       -0.0307
     15 C          61.7691   89.4050   13.3025 C.2     1  UNL1        0.2390
     16 C          61.9717   90.0580   11.9674 C.2     1  UNL1        0.0895
     17 C          63.2610   90.8232   12.0167 C.2     1  UNL1        0.0782
     18 C          63.9707   91.6607   10.9944 C.3     1  UNL1        0.0751
     19 N          66.6939   93.9931    9.2933 N.1     1  UNL1       -0.1910
     20 C          65.9842   93.1556   10.3155 C.1     1  UNL1        0.1003
     21 N          63.0458   85.3220    9.5762 N.pl3   1  UNL1       -0.2127
     22 H          63.7886   85.1978    8.9421 H       1  UNL1        0.1738
     23 S          62.9288   84.4320   10.7779 S.O2    1  UNL1        0.0758
     24 O          64.2160   83.7586   10.4046 O.2     1  UNL1       -0.1499
     25 O          61.6415   85.1053   11.1513 O.2     1  UNL1       -0.1499
     26 C          62.8117   83.5419   11.9797 C.ar    1  UNL1        0.1524
     27 C          62.4739   82.0905   11.8079 C.ar    1  UNL1        0.0225
     28 C          62.3569   81.2005   13.0096 C.ar    1  UNL1        0.0015
     29 C          62.5775   81.7617   14.3830 C.ar    1  UNL1        0.0024
     30 C          62.9152   83.2131   14.5548 C.ar    1  UNL1        0.0310
     31 C          63.0323   84.1031   13.3531 C.ar    1  UNL1        0.1589
     32 F          63.3701   85.5545   13.5248 F       1  UNL1       -0.2027
@<TRIPOS>BOND
     1    19    20    3
     2    20    10    1
     3    10    11    2
     4    11    12    1
     5    12    13    2
     6    13    14    1
     7    14    15    2
     8    15    16    1
     9    16     8    1
    10     8     9    2
    11     8     1    1
    12     1     2   ar
    13     2     3   ar
    14     3     4   ar
    15     4     5   ar
    16     5    21    1
    17    21    23    1
    18    23    24    2
    19    23    25    2
    20    23    26    1
    21    26    27   ar
    22    27    28   ar
    23    28    29   ar
    24    29    30   ar
    25    30    31   ar
    26    31    32    1
    27     5     6   ar
    28     6     7    1
    29    16    17    2
    30    17    18    1
    31    18    10    1
    32    17    13    1
    33     6     1   ar
    34    31    26   ar
    35    21    22    1
