@<TRIPOS>MOLECULE
*****
 29 32 0 0 0
SMALL
GASTEIGER

@<TRIPOS>ATOM
      1 C          62.0797   89.3305   10.8449 C.ar    1  UNL1        0.2014
      2 N          61.5135   90.0934    9.6842 N.ar    1  UNL1       -0.2136
      3 C          60.6131   89.1704    8.9176 C.ar    1  UNL1        0.0999
      4 C          59.7857   89.3719    7.6829 C.ar    1  UNL1        0.0207
      5 C          58.9680   88.2399    7.1351 C.ar    1  UNL1        0.0016
      6 C          58.9779   86.9065    7.8221 C.ar    1  UNL1        0.0016
      7 C          59.8053   86.7051    9.0569 C.ar    1  UNL1        0.0188
      8 C          60.6230   87.8370    9.6046 C.ar    1  UNL1        0.0801
      9 N          61.5294   87.9360   10.7957 N.ar    1  UNL1       -0.2954
     10 C          64.9292   90.9422   13.9324 C.3     1  UNL1        0.0610
     11 C          64.2836   89.6034   14.1340 C.3     1  UNL1        0.0375
     12 C          63.3337   89.0662   13.1049 C.3     1  UNL1        0.0949
     13 N          63.0296   89.8677   11.8741 N.pl3   1  UNL1       -0.2794
     14 C          63.6752   91.2065   11.6724 C.3     1  UNL1        0.0949
     15 C          64.6250   91.7437   12.7016 C.3     1  UNL1        0.0375
     16 N          65.8791   91.4794   14.9616 N.3     1  UNL1       -0.2706
     17 C          65.3607   92.3022   16.1036 C.3     1  UNL1        0.0897
     18 C          67.3473   91.1939   14.8487 C.3     1  UNL1        0.1046
     19 C          68.2066   92.0294   13.9468 C.3     1  UNL1        0.1595
     20 C          68.8558   93.6631   15.8598 C.3     1  UNL1        0.1742
     21 O          69.1565   93.0316   14.5329 O.3     1  UNL1       -0.3496
     22 C          61.8322   86.8338   11.7671 C.3     1  UNL1        0.1354
     23 C          62.5283   85.5908   11.2979 C.ar    1  UNL1        0.0006
     24 C          62.7807   85.3795    9.8344 C.ar    1  UNL1       -0.0001
     25 C          63.4768   84.1364    9.3652 C.ar    1  UNL1        0.0294
     26 C          63.9205   83.1046   10.3595 C.ar    1  UNL1        0.1401
     27 F          64.6167   81.8615    9.8902 F       1  UNL1       -0.2042
     28 C          63.6681   83.3159   11.8229 C.ar    1  UNL1        0.0294
     29 C          62.9720   84.5589   12.2921 C.ar    1  UNL1       -0.0001
@<TRIPOS>BOND
     1    20    21    1
     2    21    19    1
     3    19    18    1
     4    18    16    1
     5    16    17    1
     6    16    10    1
     7    10    11    1
     8    11    12    1
     9    12    13    1
    10    13     1    1
    11     1     2   ar
    12     2     3   ar
    13     3     4   ar
    14     4     5   ar
    15     5     6   ar
    16     6     7   ar
    17     7     8   ar
    18     8     9   ar
    19     9    22    1
    20    22    23    1
    21    23    24   ar
    22    24    25   ar
    23    25    26   ar
    24    26    27    1
    25    26    28   ar
    26    28    29   ar
    27    13    14    1
    28    14    15    1
    29    15    10    1
    30     9     1   ar
    31    29    23   ar
    32     8     3   ar
@<TRIPOS>MOLECULE
*****
 29 32 0 0 0
SMALL
GASTEIGER

@<TRIPOS>ATOM
      1 C          63.2782   84.8309   13.2149 C.ar    1  UNL1        0.2014
      2 N          62.8856   83.8526   14.2820 N.ar    1  UNL1       -0.2136
      3 C          62.7383   82.5036   13.6426 C.ar    1  UNL1        0.0999
      4 C          62.3685   81.1623   14.2031 C.ar    1  UNL1        0.0207
      5 C          62.3003   79.9657   13.3012 C.ar    1  UNL1        0.0016
      6 C          62.6018   80.1104   11.8390 C.ar    1  UNL1        0.0016
      7 C          62.9715   81.4517   11.2786 C.ar    1  UNL1        0.0188
      8 C          63.0398   82.6483   12.1804 C.ar    1  UNL1        0.0801
      9 N          63.3734   84.0867   11.9161 N.ar    1  UNL1       -0.2954
     10 C          64.0368   89.2269   13.8063 C.3     1  UNL1        0.0610
     11 C          63.3147   88.7485   12.5817 C.3     1  UNL1        0.0375
     12 C          63.0618   87.2832   12.3846 C.3     1  UNL1        0.0949
     13 N          63.5311   86.2963   13.4120 N.pl3   1  UNL1       -0.2794
     14 C          64.2532   86.7746   14.6366 C.3     1  UNL1        0.0949
     15 C          64.5061   88.2400   14.8337 C.3     1  UNL1        0.0375
     16 N          64.2897   90.6922   14.0034 N.3     1  UNL1       -0.2706
     17 C          64.3036   91.2715   15.3870 C.3     1  UNL1        0.0897
     18 C          64.5287   91.5784   12.8170 C.3     1  UNL1        0.1046
     19 C          65.7983   92.3709   12.7165 C.3     1  UNL1        0.1595
     20 C          67.0845   93.5899   14.6165 C.3     1  UNL1        0.1742
     21 O          65.9983   93.5797   13.5821 O.3     1  UNL1       -0.3496
     22 C          63.7383   84.6771   10.5863 C.3     1  UNL1        0.1354
     23 C          62.6622   85.1549    9.6571 C.ar    1  UNL1        0.0006
     24 C          62.7698   84.8885    8.1848 C.ar    1  UNL1       -0.0001
     25 C          61.6936   85.3663    7.2555 C.ar    1  UNL1        0.0294
     26 C          60.5098   86.1105    7.7985 C.ar    1  UNL1        0.1401
     27 F          59.4337   86.5883    6.8692 F       1  UNL1       -0.2042
     28 C          60.4022   86.3769    9.2707 C.ar    1  UNL1        0.0294
     29 C          61.4784   85.8991   10.2000 C.ar    1  UNL1       -0.0001
@<TRIPOS>BOND
     1    20    21    1
     2    21    19    1
     3    19    18    1
     4    18    16    1
     5    16    17    1
     6    16    10    1
     7    10    11    1
     8    11    12    1
     9    12    13    1
    10    13     1    1
    11     1     2   ar
    12     2     3   ar
    13     3     4   ar
    14     4     5   ar
    15     5     6   ar
    16     6     7   ar
    17     7     8   ar
    18     8     9   ar
    19     9    22    1
    20    22    23    1
    21    23    24   ar
    22    24    25   ar
    23    25    26   ar
    24    26    27    1
    25    26    28   ar
    26    28    29   ar
    27    13    14    1
    28    14    15    1
    29    15    10    1
    30     9     1   ar
    31    29    23   ar
    32     8     3   ar
@<TRIPOS>MOLECULE
*****
 29 32 0 0 0
SMALL
GASTEIGER

@<TRIPOS>ATOM
      1 C          63.2849   84.9297   13.2745 C.ar    1  UNL1        0.2014
      2 N          62.8740   83.9829   14.3630 N.ar    1  UNL1       -0.2136
      3 C          62.6988   82.6236   13.7535 C.ar    1  UNL1        0.0999
      4 C          62.3028   81.3026   14.3433 C.ar    1  UNL1        0.0207
      5 C          62.2094   80.0882   13.4679 C.ar    1  UNL1        0.0016
      6 C          62.5120   80.1948   12.0026 C.ar    1  UNL1        0.0016
      7 C          62.9080   81.5158   11.4127 C.ar    1  UNL1        0.0188
      8 C          63.0014   82.7302   12.2882 C.ar    1  UNL1        0.0801
      9 N          63.3636   84.1555   11.9922 N.ar    1  UNL1       -0.2954
     10 C          64.1325   89.3214   13.7692 C.3     1  UNL1        0.0610
     11 C          64.6003   88.3456   14.8079 C.3     1  UNL1        0.0375
     12 C          64.3178   86.8817   14.6430 C.3     1  UNL1        0.0949
     13 N          63.5674   86.3936   13.4394 N.pl3   1  UNL1       -0.2794
     14 C          63.0995   87.3693   12.4007 C.3     1  UNL1        0.0949
     15 C          63.3821   88.8332   12.5656 C.3     1  UNL1        0.0375
     16 N          64.4150   90.7852   13.9341 N.3     1  UNL1       -0.2706
     17 C          64.5037   91.3820   15.3074 C.3     1  UNL1        0.0897
     18 C          64.6089   91.6524   12.7256 C.3     1  UNL1        0.1046
     19 C          65.6443   92.7377   12.7396 C.3     1  UNL1        0.1595
     20 C          67.1227   92.6017   10.6074 C.3     1  UNL1        0.1742
     21 O          66.9805   92.5078   12.0977 O.3     1  UNL1       -0.3496
     22 C          63.7387   84.7092   10.6496 C.3     1  UNL1        0.1354
     23 C          62.6702   85.1696    9.7030 C.ar    1  UNL1        0.0006
     24 C          61.4679   85.8984   10.2261 C.ar    1  UNL1       -0.0001
     25 C          60.3993   86.3588    9.2795 C.ar    1  UNL1        0.0294
     26 C          60.5329   86.0904    7.8097 C.ar    1  UNL1        0.1401
     27 F          59.4643   86.5509    6.8631 F       1  UNL1       -0.2042
     28 C          61.7351   85.3617    7.2866 C.ar    1  UNL1        0.0294
     29 C          62.8037   84.9013    8.2332 C.ar    1  UNL1       -0.0001
@<TRIPOS>BOND
     1    20    21    1
     2    21    19    1
     3    19    18    1
     4    18    16    1
     5    16    17    1
     6    16    10    1
     7    10    11    1
     8    11    12    1
     9    12    13    1
    10    13     1    1
    11     1     2   ar
    12     2     3   ar
    13     3     4   ar
    14     4     5   ar
    15     5     6   ar
    16     6     7   ar
    17     7     8   ar
    18     8     9   ar
    19     9    22    1
    20    22    23    1
    21    23    24   ar
    22    24    25   ar
    23    25    26   ar
    24    26    27    1
    25    26    28   ar
    26    28    29   ar
    27    13    14    1
    28    14    15    1
    29    15    10    1
    30     9     1   ar
    31    29    23   ar
    32     8     3   ar
@<TRIPOS>MOLECULE
*****
 29 32 0 0 0
SMALL
GASTEIGER

@<TRIPOS>ATOM
      1 C          59.6688   93.8275    0.0662 C.ar    1  UNL1        0.2014
      2 N          59.7980   92.9604    1.2833 N.ar    1  UNL1       -0.2136
      3 C          61.2588   92.7933    1.5806 C.ar    1  UNL1        0.0999
      4 C          61.9844   92.0443    2.6587 C.ar    1  UNL1        0.0207
      5 C          63.4836   92.0591    2.7034 C.ar    1  UNL1        0.0016
      6 C          64.2572   92.8230    1.6699 C.ar    1  UNL1        0.0016
      7 C          63.5316   93.5720    0.5918 C.ar    1  UNL1        0.0188
      8 C          62.0324   93.5572    0.5471 C.ar    1  UNL1        0.0801
      9 N          61.0497   94.1963   -0.3888 N.ar    1  UNL1       -0.2954
     10 C          55.8152   95.0991   -1.8786 C.3     1  UNL1        0.0610
     11 C          56.7931   96.1331   -1.4049 C.3     1  UNL1        0.0375
     12 C          58.0777   95.7092   -0.7567 C.3     1  UNL1        0.0949
     13 N          58.3843   94.2514   -0.5820 N.pl3   1  UNL1       -0.2794
     14 C          57.4063   93.2174   -1.0557 C.3     1  UNL1        0.0949
     15 C          56.1217   93.6412   -1.7039 C.3     1  UNL1        0.0375
     16 N          54.5306   95.5230   -2.5268 N.3     1  UNL1       -0.2706
     17 C          54.5011   95.8489   -3.9907 C.3     1  UNL1        0.0897
     18 C          53.2755   95.6209   -1.7113 C.3     1  UNL1        0.1046
     19 C          52.0622   96.2949   -2.2800 C.3     1  UNL1        0.1595
     20 C          50.4997   95.9513   -4.3271 C.3     1  UNL1        0.1742
     21 O          51.0240   95.4869   -3.0007 O.3     1  UNL1       -0.3496
     22 C          61.3886   95.0538   -1.5720 C.3     1  UNL1        0.1354
     23 C          62.4516   94.6163   -2.5355 C.ar    1  UNL1        0.0006
     24 C          63.5189   95.5797   -2.9630 C.ar    1  UNL1       -0.0001
     25 C          64.5820   95.1423   -3.9265 C.ar    1  UNL1        0.0294
     26 C          64.5778   93.7413   -4.4626 C.ar    1  UNL1        0.1401
     27 F          65.6409   93.3039   -5.4262 F       1  UNL1       -0.2042
     28 C          63.5106   92.7780   -4.0352 C.ar    1  UNL1        0.0294
     29 C          62.4474   93.2154   -3.0716 C.ar    1  UNL1       -0.0001
@<TRIPOS>BOND
     1    20    21    1
     2    21    19    1
     3    19    18    1
     4    18    16    1
     5    16    17    1
     6    16    10    1
     7    10    11    1
     8    11    12    1
     9    12    13    1
    10    13     1    1
    11     1     2   ar
    12     2     3   ar
    13     3     4   ar
    14     4     5   ar
    15     5     6   ar
    16     6     7   ar
    17     7     8   ar
    18     8     9   ar
    19     9    22    1
    20    22    23    1
    21    23    24   ar
    22    24    25   ar
    23    25    26   ar
    24    26    27    1
    25    26    28   ar
    26    28    29   ar
    27    13    14    1
    28    14    15    1
    29    15    10    1
    30     9     1   ar
    31    29    23   ar
    32     8     3   ar
@<TRIPOS>MOLECULE
*****
 29 32 0 0 0
SMALL
GASTEIGER

@<TRIPOS>ATOM
      1 C          59.6235   93.9324    0.0432 C.ar    1  UNL1        0.2014
      2 N          59.7550   93.0987    1.2833 N.ar    1  UNL1       -0.2136
      3 C          61.2166   92.9227    1.5708 C.ar    1  UNL1        0.0999
      4 C          61.9444   92.1961    2.6627 C.ar    1  UNL1        0.0207
      5 C          63.4440   92.1943    2.6922 C.ar    1  UNL1        0.0016
      6 C          64.2160   92.9192    1.6299 C.ar    1  UNL1        0.0016
      7 C          63.4882   93.6459    0.5380 C.ar    1  UNL1        0.0188
      8 C          61.9885   93.6476    0.5084 C.ar    1  UNL1        0.0801
      9 N          61.0040   94.2716   -0.4356 N.ar    1  UNL1       -0.2954
     10 C          55.7654   95.1940   -1.8992 C.3     1  UNL1        0.0610
     11 C          56.0579   93.7380   -1.6884 C.3     1  UNL1        0.0375
     12 C          57.3439   93.3175   -1.0409 C.3     1  UNL1        0.0949
     13 N          58.3375   94.3529   -0.6043 N.pl3   1  UNL1       -0.2794
     14 C          58.0450   95.8089   -0.8151 C.3     1  UNL1        0.0949
     15 C          56.7590   96.2295   -1.4626 C.3     1  UNL1        0.0375
     16 N          54.4794   95.6146   -2.5467 N.3     1  UNL1       -0.2706
     17 C          53.2488   95.8116   -1.7120 C.3     1  UNL1        0.0897
     18 C          54.4239   95.8381   -4.0289 C.3     1  UNL1        0.1046
     19 C          55.5524   95.3722   -4.9004 C.3     1  UNL1        0.1595
     20 C          56.9844   93.2411   -5.2981 C.3     1  UNL1        0.1742
     21 O          55.6506   93.9274   -5.2917 O.3     1  UNL1       -0.3496
     22 C          61.3407   95.0910   -1.6461 C.3     1  UNL1        0.1354
     23 C          62.4225   94.6381   -2.5812 C.ar    1  UNL1        0.0006
     24 C          63.5099   95.5885   -2.9867 C.ar    1  UNL1       -0.0001
     25 C          64.5917   95.1356   -3.9218 C.ar    1  UNL1        0.0294
     26 C          64.5862   93.7322   -4.4515 C.ar    1  UNL1        0.1401
     27 F          65.6681   93.2794   -5.3866 F       1  UNL1       -0.2042
     28 C          63.4989   92.7818   -4.0460 C.ar    1  UNL1        0.0294
     29 C          62.4171   93.2347   -3.1109 C.ar    1  UNL1       -0.0001
@<TRIPOS>BOND
     1    20    21    1
     2    21    19    1
     3    19    18    1
     4    18    16    1
     5    16    17    1
     6    16    10    1
     7    10    11    1
     8    11    12    1
     9    12    13    1
    10    13     1    1
    11     1     2   ar
    12     2     3   ar
    13     3     4   ar
    14     4     5   ar
    15     5     6   ar
    16     6     7   ar
    17     7     8   ar
    18     8     9   ar
    19     9    22    1
    20    22    23    1
    21    23    24   ar
    22    24    25   ar
    23    25    26   ar
    24    26    27    1
    25    26    28   ar
    26    28    29   ar
    27    13    14    1
    28    14    15    1
    29    15    10    1
    30     9     1   ar
    31    29    23   ar
    32     8     3   ar
@<TRIPOS>MOLECULE
*****
 29 32 0 0 0
SMALL
GASTEIGER

@<TRIPOS>ATOM
      1 C          61.3567   86.3481   10.1249 C.ar    1  UNL1        0.2014
      2 N          60.8344   86.0295    8.7554 N.ar    1  UNL1       -0.2136
      3 C          60.2716   87.2903    8.1690 C.ar    1  UNL1        0.0999
      4 C          59.6228   87.5804    6.8481 C.ar    1  UNL1        0.0207
      5 C          59.1486   88.9684    6.5343 C.ar    1  UNL1        0.0016
      6 C          59.3232   90.0663    7.5414 C.ar    1  UNL1        0.0016
      7 C          59.9720   89.7761    8.8623 C.ar    1  UNL1        0.0188
      8 C          60.4462   88.3881    9.1761 C.ar    1  UNL1        0.0801
      9 N          61.1169   87.8058   10.3849 N.ar    1  UNL1       -0.2954
     10 C          63.3020   83.4414   12.9563 C.3     1  UNL1        0.0610
     11 C          63.4022   83.2268   11.4752 C.3     1  UNL1        0.0375
     12 C          62.7538   84.1957   10.5314 C.3     1  UNL1        0.0949
     13 N          62.0052   85.3792   11.0687 N.pl3   1  UNL1       -0.2794
     14 C          61.9049   85.5938   12.5499 C.3     1  UNL1        0.0949
     15 C          62.5533   84.6249   13.4937 C.3     1  UNL1        0.0375
     16 N          63.9504   82.4725   13.9002 N.3     1  UNL1       -0.2706
     17 C          64.7001   82.9786   15.0966 C.3     1  UNL1        0.0897
     18 C          63.8490   80.9974   13.6475 C.3     1  UNL1        0.1046
     19 C          62.5088   80.3240   13.6639 C.3     1  UNL1        0.1595
     20 C          59.9669   80.3843   14.1981 C.3     1  UNL1        0.1742
     21 O          61.3049   81.0618   14.1703 O.3     1  UNL1       -0.3496
     22 C          61.4833   88.5506   11.6343 C.3     1  UNL1        0.1354
     23 C          62.4944   89.6570   11.5787 C.ar    1  UNL1        0.0006
     24 C          62.7555   90.3702   10.2852 C.ar    1  UNL1       -0.0001
     25 C          63.7667   91.4768   10.2295 C.ar    1  UNL1        0.0294
     26 C          64.5168   91.8702   11.4675 C.ar    1  UNL1        0.1401
     27 F          65.5280   92.9767   11.4118 F       1  UNL1       -0.2042
     28 C          64.2558   91.1570   12.7610 C.ar    1  UNL1        0.0294
     29 C          63.2446   90.0505   12.8167 C.ar    1  UNL1       -0.0001
@<TRIPOS>BOND
     1    20    21    1
     2    21    19    1
     3    19    18    1
     4    18    16    1
     5    16    17    1
     6    16    10    1
     7    10    11    1
     8    11    12    1
     9    12    13    1
    10    13     1    1
    11     1     2   ar
    12     2     3   ar
    13     3     4   ar
    14     4     5   ar
    15     5     6   ar
    16     6     7   ar
    17     7     8   ar
    18     8     9   ar
    19     9    22    1
    20    22    23    1
    21    23    24   ar
    22    24    25   ar
    23    25    26   ar
    24    26    27    1
    25    26    28   ar
    26    28    29   ar
    27    13    14    1
    28    14    15    1
    29    15    10    1
    30     9     1   ar
    31    29    23   ar
    32     8     3   ar
@<TRIPOS>MOLECULE
*****
 29 32 0 0 0
SMALL
GASTEIGER

@<TRIPOS>ATOM
      1 C          58.4645   94.3606   -1.4325 C.ar    1  UNL1        0.2014
      2 N          57.1302   94.8138   -0.9183 N.ar    1  UNL1       -0.2136
      3 C          56.2476   95.0899   -2.0993 C.ar    1  UNL1        0.0999
      4 C          54.8277   95.5621   -2.2025 C.ar    1  UNL1        0.0207
      5 C          54.1965   95.7518   -3.5499 C.ar    1  UNL1        0.0016
      6 C          54.9853   95.4693   -4.7941 C.ar    1  UNL1        0.0016
      7 C          56.4052   94.9971   -4.6909 C.ar    1  UNL1        0.0188
      8 C          57.0364   94.8074   -3.3435 C.ar    1  UNL1        0.0801
      9 N          58.4065   94.3566   -2.9314 N.ar    1  UNL1       -0.2954
     10 C          62.0172   93.2142    1.0801 C.3     1  UNL1        0.0610
     11 C          61.6841   94.6612    0.8682 C.3     1  UNL1        0.0375
     12 C          60.4998   95.0434    0.0307 C.3     1  UNL1        0.0949
     13 N          59.6487   93.9785   -0.5950 N.pl3   1  UNL1       -0.2794
     14 C          59.9819   92.5314   -0.3831 C.3     1  UNL1        0.0949
     15 C          61.1661   92.1492    0.4545 C.3     1  UNL1        0.0375
     16 N          63.2015   92.8320    1.9177 N.3     1  UNL1       -0.2706
     17 C          63.1443   91.6086    2.7836 C.3     1  UNL1        0.0897
     18 C          64.4430   93.6733    1.8893 C.3     1  UNL1        0.1046
     19 C          65.3269   93.6654    0.6774 C.3     1  UNL1        0.1595
     20 C          65.1513   96.2493    0.4710 C.3     1  UNL1        0.1742
     21 O          65.5140   94.9204   -0.1227 O.3     1  UNL1       -0.3496
     22 C          59.5226   93.9699   -3.8559 C.3     1  UNL1        0.1354
     23 C          60.9064   94.4999   -3.6240 C.ar    1  UNL1        0.0006
     24 C          62.0214   93.5589   -3.2756 C.ar    1  UNL1       -0.0001
     25 C          63.4054   94.0890   -3.0436 C.ar    1  UNL1        0.0294
     26 C          63.6743   95.5601   -3.1601 C.ar    1  UNL1        0.1401
     27 F          65.0582   96.0901   -2.9281 F       1  UNL1       -0.2042
     28 C          62.5593   96.5011   -3.5084 C.ar    1  UNL1        0.0294
     29 C          61.1754   95.9710   -3.7404 C.ar    1  UNL1       -0.0001
@<TRIPOS>BOND
     1    20    21    1
     2    21    19    1
     3    19    18    1
     4    18    16    1
     5    16    17    1
     6    16    10    1
     7    10    11    1
     8    11    12    1
     9    12    13    1
    10    13     1    1
    11     1     2   ar
    12     2     3   ar
    13     3     4   ar
    14     4     5   ar
    15     5     6   ar
    16     6     7   ar
    17     7     8   ar
    18     8     9   ar
    19     9    22    1
    20    22    23    1
    21    23    24   ar
    22    24    25   ar
    23    25    26   ar
    24    26    27    1
    25    26    28   ar
    26    28    29   ar
    27    13    14    1
    28    14    15    1
    29    15    10    1
    30     9     1   ar
    31    29    23   ar
    32     8     3   ar
@<TRIPOS>MOLECULE
*****
 29 32 0 0 0
SMALL
GASTEIGER

@<TRIPOS>ATOM
      1 C          63.4704   85.3771   13.2846 C.ar    1  UNL1        0.2014
      2 N          63.4405   84.2644   14.2901 N.ar    1  UNL1       -0.2136
      3 C          63.1295   82.9902   13.5623 C.ar    1  UNL1        0.0999
      4 C          62.9731   81.5759   14.0368 C.ar    1  UNL1        0.0207
      5 C          62.6545   80.4867   13.0559 C.ar    1  UNL1        0.0016
      6 C          62.4923   80.8119   11.6006 C.ar    1  UNL1        0.0016
      7 C          62.6487   82.2262   11.1261 C.ar    1  UNL1        0.0188
      8 C          62.9673   83.3154   12.1070 C.ar    1  UNL1        0.0801
      9 N          63.1780   84.7905   11.9354 N.ar    1  UNL1       -0.2954
     10 C          64.2932   89.7134   14.1617 C.3     1  UNL1        0.0610
     11 C          64.7274   88.6563   15.1332 C.3     1  UNL1        0.0375
     12 C          64.4531   87.2108   14.8408 C.3     1  UNL1        0.0949
     13 N          63.7447   86.8226   13.5769 N.pl3   1  UNL1       -0.2794
     14 C          63.3106   87.8798   12.6055 C.3     1  UNL1        0.0949
     15 C          63.5848   89.3252   12.8978 C.3     1  UNL1        0.0375
     16 N          64.5675   91.1589   14.4541 N.3     1  UNL1       -0.2706
     17 C          64.2403   91.7263   15.8034 C.3     1  UNL1        0.0897
     18 C          65.1690   92.0369   13.3971 C.3     1  UNL1        0.1046
     19 C          66.6596   92.1271   13.2559 C.3     1  UNL1        0.1595
     20 C          67.7547   93.3810   15.2506 C.3     1  UNL1        0.1742
     21 O          67.5307   92.1155   14.4771 O.3     1  UNL1       -0.3496
     22 C          63.1084   85.5464   10.6416 C.3     1  UNL1        0.1354
     23 C          62.1761   86.7133   10.5038 C.ar    1  UNL1        0.0006
     24 C          62.5612   87.8843    9.6491 C.ar    1  UNL1       -0.0001
     25 C          61.6289   89.0512    9.5113 C.ar    1  UNL1        0.0294
     26 C          60.3113   89.0471   10.2282 C.ar    1  UNL1        0.1401
     27 F          59.3789   90.2140   10.0904 F       1  UNL1       -0.2042
     28 C          59.9261   87.8762   11.0829 C.ar    1  UNL1        0.0294
     29 C          60.8585   86.7093   11.2208 C.ar    1  UNL1       -0.0001
@<TRIPOS>BOND
     1    20    21    1
     2    21    19    1
     3    19    18    1
     4    18    16    1
     5    16    17    1
     6    16    10    1
     7    10    11    1
     8    11    12    1
     9    12    13    1
    10    13     1    1
    11     1     2   ar
    12     2     3   ar
    13     3     4   ar
    14     4     5   ar
    15     5     6   ar
    16     6     7   ar
    17     7     8   ar
    18     8     9   ar
    19     9    22    1
    20    22    23    1
    21    23    24   ar
    22    24    25   ar
    23    25    26   ar
    24    26    27    1
    25    26    28   ar
    26    28    29   ar
    27    13    14    1
    28    14    15    1
    29    15    10    1
    30     9     1   ar
    31    29    23   ar
    32     8     3   ar
@<TRIPOS>MOLECULE
*****
 29 32 0 0 0
SMALL
GASTEIGER

@<TRIPOS>ATOM
      1 C          62.1883   89.3731   10.7638 C.ar    1  UNL1        0.2014
      2 N          61.3378   89.9328    9.6623 N.ar    1  UNL1       -0.2136
      3 C          60.6357   88.7892    8.9920 C.ar    1  UNL1        0.0999
      4 C          59.6709   88.7375    7.8446 C.ar    1  UNL1        0.0207
      5 C          59.1227   87.4193    7.3845 C.ar    1  UNL1        0.0016
      6 C          59.5394   86.1528    8.0718 C.ar    1  UNL1        0.0016
      7 C          60.5042   86.2045    9.2191 C.ar    1  UNL1        0.0188
      8 C          61.0524   87.5227    9.6792 C.ar    1  UNL1        0.0801
      9 N          62.0119   87.8836   10.7742 N.ar    1  UNL1       -0.2954
     10 C          64.8089   91.7460   13.5480 C.3     1  UNL1        0.0610
     11 C          63.9579   90.6336   14.0849 C.3     1  UNL1        0.0375
     12 C          63.0843   89.8427   13.1568 C.3     1  UNL1        0.0949
     13 N          63.0619   90.1641   11.6918 N.pl3   1  UNL1       -0.2794
     14 C          63.9129   91.2764   11.1550 C.3     1  UNL1        0.0949
     15 C          64.7865   92.0674   12.0830 C.3     1  UNL1        0.0375
     16 N          65.6825   92.5370   14.4761 N.3     1  UNL1       -0.2706
     17 C          66.5719   93.6154   13.9320 C.3     1  UNL1        0.0897
     18 C          65.6666   92.2495   15.9481 C.3     1  UNL1        0.1046
     19 C          64.4241   91.7121   16.5940 C.3     1  UNL1        0.1595
     20 C          63.2402   93.8498   17.4765 C.3     1  UNL1        0.1742
     21 O          63.1985   92.5714   16.6931 O.3     1  UNL1       -0.3496
     22 C          62.6781   86.9234   11.7146 C.3     1  UNL1        0.1354
     23 C          62.8634   85.4895   11.3156 C.ar    1  UNL1        0.0006
     24 C          62.5375   84.3929   12.2859 C.ar    1  UNL1       -0.0001
     25 C          62.7227   82.9588   11.8870 C.ar    1  UNL1        0.0294
     26 C          63.2339   82.6213   10.5177 C.ar    1  UNL1        0.1401
     27 F          63.4191   81.1873   10.1188 F       1  UNL1       -0.2042
     28 C          63.5597   83.7178    9.5475 C.ar    1  UNL1        0.0294
     29 C          63.3745   85.1519    9.9464 C.ar    1  UNL1       -0.0001
@<TRIPOS>BOND
     1    20    21    1
     2    21    19    1
     3    19    18    1
     4    18    16    1
     5    16    17    1
     6    16    10    1
     7    10    11    1
     8    11    12    1
     9    12    13    1
    10    13     1    1
    11     1     2   ar
    12     2     3   ar
    13     3     4   ar
    14     4     5   ar
    15     5     6   ar
    16     6     7   ar
    17     7     8   ar
    18     8     9   ar
    19     9    22    1
    20    22    23    1
    21    23    24   ar
    22    24    25   ar
    23    25    26   ar
    24    26    27    1
    25    26    28   ar
    26    28    29   ar
    27    13    14    1
    28    14    15    1
    29    15    10    1
    30     9     1   ar
    31    29    23   ar
    32     8     3   ar
