@<TRIPOS>MOLECULE
*****
 21 23 0 0 0
SMALL
GASTEIGER

@<TRIPOS>ATOM
      1 C          65.0754   92.0953   11.5852 C.ar    1  UNL1        0.0252
      2 C          63.8489   91.5847   10.8889 C.ar    1  UNL1        0.0993
      3 N          62.9085   90.6622   11.6062 N.ar    1  UNL1       -0.2423
      4 C          63.1947   90.2502   13.0199 C.ar    1  UNL1        0.0989
      5 C          64.4212   90.7608   13.7162 C.ar    1  UNL1        0.0207
      6 C          65.3616   91.6833   12.9989 C.ar    1  UNL1        0.0036
      7 C          66.5882   92.1939   13.6952 C.ar    1  UNL1        0.0032
      8 C          67.9351   91.6299   13.3518 C.ar    1  UNL1        0.0207
      9 C          69.1616   92.1405   14.0481 C.ar    1  UNL1        0.0989
     10 N          69.0414   93.2150   15.0878 N.ar    1  UNL1       -0.2423
     11 C          67.6945   93.7790   15.4312 C.ar    1  UNL1        0.0989
     12 C          66.4679   93.2684   14.7348 C.ar    1  UNL1        0.0207
     13 C          67.0564   95.0263    9.9882 C.ar    1  UNL1        0.0230
     14 C          67.8699   93.8485    9.5399 C.ar    1  UNL1        0.0040
     15 C          67.2269   92.6072   10.0836 C.ar    1  UNL1        0.0067
     16 C          66.0159   93.0178   10.8679 C.ar    1  UNL1        0.0307
     17 S          65.9106   94.5129   10.8089 S.2     1  UNL1       -0.0899
     18 N          67.7918   96.8550    8.2955 N.3     1  UNL1       -0.3170
     19 C          67.3390   96.4650    9.6713 C.3     1  UNL1        0.0987
     20 H          67.9361   97.8641    8.2584 H       1  UNL1        0.1192
     21 H          67.0804   96.5880    7.6150 H       1  UNL1        0.1192
@<TRIPOS>BOND
     1    18    19    1
     2    19    13    1
     3    13    14   ar
     4    14    15   ar
     5    15    16   ar
     6    16     1    1
     7     1     2   ar
     8     2     3   ar
     9     3     4   ar
    10     4     5   ar
    11     5     6   ar
    12     6     7    1
    13     7     8   ar
    14     8     9   ar
    15     9    10   ar
    16    10    11   ar
    17    11    12   ar
    18    16    17   ar
    19    17    13   ar
    20     6     1   ar
    21    12     7   ar
    22    18    20    1
    23    18    21    1
@<TRIPOS>MOLECULE
*****
 21 23 0 0 0
SMALL
GASTEIGER

@<TRIPOS>ATOM
      1 C          64.0030   90.7255   12.5404 C.ar    1  UNL1        0.0252
      2 C          64.4949   91.8301   11.6528 C.ar    1  UNL1        0.0993
      3 N          65.6646   92.6680   12.0764 N.ar    1  UNL1       -0.2423
      4 C          66.3425   92.4013   13.3876 C.ar    1  UNL1        0.0989
      5 C          65.8506   91.2967   14.2752 C.ar    1  UNL1        0.0207
      6 C          64.6809   90.4588   13.8516 C.ar    1  UNL1        0.0036
      7 C          64.1889   89.3542   14.7392 C.ar    1  UNL1        0.0032
      8 C          64.4996   87.9261   14.4016 C.ar    1  UNL1        0.0207
      9 C          64.0077   86.8214   15.2891 C.ar    1  UNL1        0.0989
     10 N          63.2050   87.1449   16.5144 N.ar    1  UNL1       -0.2423
     11 C          62.8944   88.5730   16.8520 C.ar    1  UNL1        0.0989
     12 C          63.3863   89.6776   15.9644 C.ar    1  UNL1        0.0207
     13 C          60.5659   89.0835   11.7946 C.ar    1  UNL1        0.0230
     14 C          61.5001   88.1126   11.1351 C.ar    1  UNL1        0.0040
     15 C          62.9013   88.6096   11.3343 C.ar    1  UNL1        0.0067
     16 C          62.8331   89.8876   12.1167 C.ar    1  UNL1        0.0307
     17 S          61.3898   90.1804   12.4012 S.2     1  UNL1       -0.0899
     18 N          58.3823   88.6194   13.1237 N.3     1  UNL1       -0.3170
     19 C          59.0704   88.9762   11.8395 C.3     1  UNL1        0.0987
     20 H          57.3739   88.5912   12.9726 H       1  UNL1        0.1192
     21 H          58.6004   89.3199   13.8323 H       1  UNL1        0.1192
@<TRIPOS>BOND
     1    18    19    1
     2    19    13    1
     3    13    14   ar
     4    14    15   ar
     5    15    16   ar
     6    16     1    1
     7     1     2   ar
     8     2     3   ar
     9     3     4   ar
    10     4     5   ar
    11     5     6   ar
    12     6     7    1
    13     7     8   ar
    14     8     9   ar
    15     9    10   ar
    16    10    11   ar
    17    11    12   ar
    18    16    17   ar
    19    17    13   ar
    20     6     1   ar
    21    12     7   ar
    22    18    20    1
    23    18    21    1
@<TRIPOS>MOLECULE
*****
 21 23 0 0 0
SMALL
GASTEIGER

@<TRIPOS>ATOM
      1 C          64.4654   90.5632   13.5537 C.ar    1  UNL1        0.0252
      2 C          65.6338   91.4671   13.8140 C.ar    1  UNL1        0.0993
      3 N          66.0831   92.4344   12.7594 N.ar    1  UNL1       -0.2423
      4 C          65.3641   92.4979   11.4445 C.ar    1  UNL1        0.0989
      5 C          64.1957   91.5940   11.1842 C.ar    1  UNL1        0.0207
      6 C          63.7463   90.6267   12.2388 C.ar    1  UNL1        0.0036
      7 C          62.5779   89.7227   11.9785 C.ar    1  UNL1        0.0032
      8 C          62.8033   88.3442   11.4319 C.ar    1  UNL1        0.0207
      9 C          61.6350   87.4402   11.1716 C.ar    1  UNL1        0.0989
     10 N          60.2411   87.9148   11.4580 N.ar    1  UNL1       -0.2423
     11 C          60.0157   89.2933   12.0047 C.ar    1  UNL1        0.0989
     12 C          61.1841   90.1973   12.2650 C.ar    1  UNL1        0.0207
     13 C          63.6213   87.5412   15.8386 C.ar    1  UNL1        0.0230
     14 C          63.0275   88.6730   16.6238 C.ar    1  UNL1        0.0040
     15 C          63.2715   89.9427   15.8635 C.ar    1  UNL1        0.0067
     16 C          64.0160   89.5957   14.6083 C.ar    1  UNL1        0.0307
     17 S          64.2322   88.1115   14.5930 S.2     1  UNL1       -0.0899
     18 N          62.3437   85.4678   16.7437 N.3     1  UNL1       -0.3170
     19 C          63.6067   86.0933   16.2303 C.3     1  UNL1        0.0987
     20 H          62.5141   84.4857   16.9599 H       1  UNL1        0.1192
     21 H          61.6160   85.5380   16.0323 H       1  UNL1        0.1192
@<TRIPOS>BOND
     1    18    19    1
     2    19    13    1
     3    13    14   ar
     4    14    15   ar
     5    15    16   ar
     6    16     1    1
     7     1     2   ar
     8     2     3   ar
     9     3     4   ar
    10     4     5   ar
    11     5     6   ar
    12     6     7    1
    13     7     8   ar
    14     8     9   ar
    15     9    10   ar
    16    10    11   ar
    17    11    12   ar
    18    16    17   ar
    19    17    13   ar
    20     6     1   ar
    21    12     7   ar
    22    18    20    1
    23    18    21    1
@<TRIPOS>MOLECULE
*****
 21 23 0 0 0
SMALL
GASTEIGER

@<TRIPOS>ATOM
      1 C          63.8567   90.6397   12.4976 C.ar    1  UNL1        0.0252
      2 C          64.3147   91.7430   11.5905 C.ar    1  UNL1        0.0993
      3 N          65.4883   92.5933   11.9772 N.ar    1  UNL1       -0.2423
      4 C          66.2039   92.3403   13.2710 C.ar    1  UNL1        0.0989
      5 C          65.7459   91.2370   14.1781 C.ar    1  UNL1        0.0207
      6 C          64.5723   90.3867   13.7914 C.ar    1  UNL1        0.0036
      7 C          64.1142   89.2833   14.6985 C.ar    1  UNL1        0.0032
      8 C          63.3269   89.6062   15.9338 C.ar    1  UNL1        0.0207
      9 C          62.8688   88.5029   16.8409 C.ar    1  UNL1        0.0989
     10 N          63.1980   87.0767   16.5128 N.ar    1  UNL1       -0.2423
     11 C          63.9853   86.7539   15.2775 C.ar    1  UNL1        0.0989
     12 C          64.4434   87.8572   14.3704 C.ar    1  UNL1        0.0207
     13 C          61.3435   87.9612   11.2426 C.ar    1  UNL1        0.0230
     14 C          60.4103   89.0006   11.7894 C.ar    1  UNL1        0.0040
     15 C          61.2382   90.1304   12.3260 C.ar    1  UNL1        0.0067
     16 C          62.6830   89.7894   12.1110 C.ar    1  UNL1        0.0307
     17 S          62.7481   88.4487   11.4414 S.2     1  UNL1       -0.0899
     18 N          61.8991   85.5071   10.5956 N.3     1  UNL1       -0.3170
     19 C          60.9425   86.6623   10.6084 C.3     1  UNL1        0.0987
     20 H          61.4650   84.7113   10.1279 H       1  UNL1        0.1192
     21 H          62.1355   85.2506   11.5541 H       1  UNL1        0.1192
@<TRIPOS>BOND
     1    18    19    1
     2    19    13    1
     3    13    14   ar
     4    14    15   ar
     5    15    16   ar
     6    16     1    1
     7     1     2   ar
     8     2     3   ar
     9     3     4   ar
    10     4     5   ar
    11     5     6   ar
    12     6     7    1
    13     7     8   ar
    14     8     9   ar
    15     9    10   ar
    16    10    11   ar
    17    11    12   ar
    18    16    17   ar
    19    17    13   ar
    20     6     1   ar
    21    12     7   ar
    22    18    20    1
    23    18    21    1
@<TRIPOS>MOLECULE
*****
 21 23 0 0 0
SMALL
GASTEIGER

@<TRIPOS>ATOM
      1 C          62.9189   86.6825   11.8919 C.ar    1  UNL1        0.0252
      2 C          63.0662   88.0830   12.4085 C.ar    1  UNL1        0.0993
      3 N          63.7599   88.3313   13.7150 N.ar    1  UNL1       -0.2423
      4 C          64.3065   87.1792   14.5049 C.ar    1  UNL1        0.0989
      5 C          64.1593   85.7787   13.9882 C.ar    1  UNL1        0.0207
      6 C          63.4655   85.5304   12.6818 C.ar    1  UNL1        0.0036
      7 C          63.3182   84.1298   12.1651 C.ar    1  UNL1        0.0032
      8 C          64.1241   83.6777   10.9835 C.ar    1  UNL1        0.0207
      9 C          63.9769   82.2772   10.4669 C.ar    1  UNL1        0.0989
     10 N          63.0237   81.3288   11.1317 N.ar    1  UNL1       -0.2423
     11 C          62.2178   81.7809   12.3133 C.ar    1  UNL1        0.0989
     12 C          62.3650   83.1815   12.8299 C.ar    1  UNL1        0.0207
     13 C          60.5344   86.3698    8.8453 C.ar    1  UNL1        0.0230
     14 C          61.7806   85.7337    8.3044 C.ar    1  UNL1        0.0040
     15 C          62.8255   85.7734    9.3799 C.ar    1  UNL1        0.0067
     16 C          62.2251   86.4341   10.5854 C.ar    1  UNL1        0.0307
     17 S          60.8092   86.8027   10.2549 S.2     1  UNL1       -0.0899
     18 N          58.9412   87.8379    7.4112 N.3     1  UNL1       -0.3170
     19 C          59.2406   86.5428    8.1061 C.3     1  UNL1        0.0987
     20 H          58.0264   87.7801    6.9637 H       1  UNL1        0.1192
     21 H          59.6545   88.0175    6.7046 H       1  UNL1        0.1192
@<TRIPOS>BOND
     1    18    19    1
     2    19    13    1
     3    13    14   ar
     4    14    15   ar
     5    15    16   ar
     6    16     1    1
     7     1     2   ar
     8     2     3   ar
     9     3     4   ar
    10     4     5   ar
    11     5     6   ar
    12     6     7    1
    13     7     8   ar
    14     8     9   ar
    15     9    10   ar
    16    10    11   ar
    17    11    12   ar
    18    16    17   ar
    19    17    13   ar
    20     6     1   ar
    21    12     7   ar
    22    18    20    1
    23    18    21    1
@<TRIPOS>MOLECULE
*****
 21 23 0 0 0
SMALL
GASTEIGER

@<TRIPOS>ATOM
      1 C          64.9019   91.7956   13.4640 C.ar    1  UNL1        0.0252
      2 C          64.4264   91.4775   14.8506 C.ar    1  UNL1        0.0993
      3 N          65.1857   91.9877   16.0393 N.ar    1  UNL1       -0.2423
      4 C          66.4205   92.8159   15.8415 C.ar    1  UNL1        0.0989
      5 C          66.8961   93.1340   14.4549 C.ar    1  UNL1        0.0207
      6 C          66.1367   92.6239   13.2662 C.ar    1  UNL1        0.0036
      7 C          66.6122   92.9420   11.8795 C.ar    1  UNL1        0.0032
      8 C          67.5330   91.9962   11.1670 C.ar    1  UNL1        0.0207
      9 C          68.0085   92.3142    9.7804 C.ar    1  UNL1        0.0989
     10 N          67.5633   93.5781    9.1062 N.ar    1  UNL1       -0.2423
     11 C          66.6425   94.5239    9.8187 C.ar    1  UNL1        0.0989
     12 C          66.1670   94.2058   11.2054 C.ar    1  UNL1        0.0207
     13 C          62.7532   89.9038   10.8429 C.ar    1  UNL1        0.0230
     14 C          63.1950   91.0972   10.0487 C.ar    1  UNL1        0.0040
     15 C          64.0536   91.9511   10.9339 C.ar    1  UNL1        0.0067
     16 C          64.1425   91.2855   12.2752 C.ar    1  UNL1        0.0307
     17 S          63.3389   90.0202   12.2190 S.2     1  UNL1       -0.0899
     18 N          61.1663   87.9044   11.3268 N.3     1  UNL1       -0.3170
     19 C          61.8793   88.7897   10.3480 C.3     1  UNL1        0.0987
     20 H          60.6216   87.2066   10.8199 H       1  UNL1        0.1192
     21 H          60.5428   88.4687   11.9041 H       1  UNL1        0.1192
@<TRIPOS>BOND
     1    18    19    1
     2    19    13    1
     3    13    14   ar
     4    14    15   ar
     5    15    16   ar
     6    16     1    1
     7     1     2   ar
     8     2     3   ar
     9     3     4   ar
    10     4     5   ar
    11     5     6   ar
    12     6     7    1
    13     7     8   ar
    14     8     9   ar
    15     9    10   ar
    16    10    11   ar
    17    11    12   ar
    18    16    17   ar
    19    17    13   ar
    20     6     1   ar
    21    12     7   ar
    22    18    20    1
    23    18    21    1
@<TRIPOS>MOLECULE
*****
 21 23 0 0 0
SMALL
GASTEIGER

@<TRIPOS>ATOM
      1 C          63.3467   82.5268   13.7587 C.ar    1  UNL1        0.0252
      2 C          63.4791   81.2647   14.5583 C.ar    1  UNL1        0.0993
      3 N          63.1520   79.9419   13.9314 N.ar    1  UNL1       -0.2423
      4 C          62.6925   79.8812   12.5048 C.ar    1  UNL1        0.0989
      5 C          62.5601   81.1433   11.7051 C.ar    1  UNL1        0.0207
      6 C          62.8871   82.4661   12.3321 C.ar    1  UNL1        0.0036
      7 C          62.7547   83.7283   11.5324 C.ar    1  UNL1        0.0032
      8 C          62.0027   84.8976   12.0957 C.ar    1  UNL1        0.0207
      9 C          61.8703   86.1598   11.2961 C.ar    1  UNL1        0.0989
     10 N          62.4899   86.2527    9.9332 N.ar    1  UNL1       -0.2423
     11 C          63.2419   85.0834    9.3699 C.ar    1  UNL1        0.0989
     12 C          63.3743   83.8212   10.1695 C.ar    1  UNL1        0.0207
     13 C          63.5915   85.8110   15.8129 C.ar    1  UNL1        0.0230
     14 C          64.7627   85.9599   14.8876 C.ar    1  UNL1        0.0040
     15 C          64.8135   84.7478   14.0054 C.ar    1  UNL1        0.0067
     16 C          63.6738   83.8498   14.3856 C.ar    1  UNL1        0.0307
     17 S          62.9186   84.5069   15.5027 S.2     1  UNL1       -0.0899
     18 N          62.1936   86.3812   17.9273 N.3     1  UNL1       -0.3170
     19 C          63.1678   86.7937   16.8640 C.3     1  UNL1        0.0987
     20 H          62.0197   87.1679   18.5528 H       1  UNL1        0.1192
     21 H          62.5812   85.6025   18.4600 H       1  UNL1        0.1192
@<TRIPOS>BOND
     1    18    19    1
     2    19    13    1
     3    13    14   ar
     4    14    15   ar
     5    15    16   ar
     6    16     1    1
     7     1     2   ar
     8     2     3   ar
     9     3     4   ar
    10     4     5   ar
    11     5     6   ar
    12     6     7    1
    13     7     8   ar
    14     8     9   ar
    15     9    10   ar
    16    10    11   ar
    17    11    12   ar
    18    16    17   ar
    19    17    13   ar
    20     6     1   ar
    21    12     7   ar
    22    18    20    1
    23    18    21    1
@<TRIPOS>MOLECULE
*****
 21 23 0 0 0
SMALL
GASTEIGER

@<TRIPOS>ATOM
      1 C          60.7960   88.3780    9.2638 C.ar    1  UNL1        0.0252
      2 C          59.8901   89.2372    8.4325 C.ar    1  UNL1        0.0993
      3 N          58.9963   88.6094    7.4045 N.ar    1  UNL1       -0.2423
      4 C          59.0083   87.1224    7.2078 C.ar    1  UNL1        0.0989
      5 C          59.9142   86.2632    8.0391 C.ar    1  UNL1        0.0207
      6 C          60.8080   86.8910    9.0672 C.ar    1  UNL1        0.0036
      7 C          61.7139   86.0318    9.8986 C.ar    1  UNL1        0.0032
      8 C          62.8063   85.2400    9.2431 C.ar    1  UNL1        0.0207
      9 C          63.7122   84.3808   10.0744 C.ar    1  UNL1        0.0989
     10 N          63.5257   84.3134   11.5613 N.ar    1  UNL1       -0.2423
     11 C          62.4333   85.1053   12.2168 C.ar    1  UNL1        0.0989
     12 C          61.5274   85.9645   11.3854 C.ar    1  UNL1        0.0207
     13 C          62.5975   89.7497   12.4164 C.ar    1  UNL1        0.0230
     14 C          63.5333   90.1941   11.3314 C.ar    1  UNL1        0.0040
     15 C          62.9723   89.7343   10.0185 C.ar    1  UNL1        0.0067
     16 C          61.6898   89.0058   10.2919 C.ar    1  UNL1        0.0307
     17 S          61.4583   89.0153   11.7739 S.2     1  UNL1       -0.0899
     18 N          63.4808   91.2294   14.3607 N.3     1  UNL1       -0.3170
     19 C          62.7707   89.9964   13.8858 C.3     1  UNL1        0.0987
     20 H          63.5071   91.2351   15.3804 H       1  UNL1        0.1192
     21 H          62.9848   92.0566   14.0288 H       1  UNL1        0.1192
@<TRIPOS>BOND
     1    18    19    1
     2    19    13    1
     3    13    14   ar
     4    14    15   ar
     5    15    16   ar
     6    16     1    1
     7     1     2   ar
     8     2     3   ar
     9     3     4   ar
    10     4     5   ar
    11     5     6   ar
    12     6     7    1
    13     7     8   ar
    14     8     9   ar
    15     9    10   ar
    16    10    11   ar
    17    11    12   ar
    18    16    17   ar
    19    17    13   ar
    20     6     1   ar
    21    12     7   ar
    22    18    20    1
    23    18    21    1
@<TRIPOS>MOLECULE
*****
 21 23 0 0 0
SMALL
GASTEIGER

@<TRIPOS>ATOM
      1 C          62.8573   86.5528   11.5985 C.ar    1  UNL1        0.0252
      2 C          63.3259   87.3279   12.7942 C.ar    1  UNL1        0.0993
      3 N          63.2754   88.8270   12.7830 N.ar    1  UNL1       -0.2423
      4 C          62.7563   89.5509   11.5762 C.ar    1  UNL1        0.0989
      5 C          62.2876   88.7758   10.3805 C.ar    1  UNL1        0.0207
      6 C          62.3381   87.2767   10.3917 C.ar    1  UNL1        0.0036
      7 C          61.8695   86.5015    9.1961 C.ar    1  UNL1        0.0032
      8 C          62.8548   85.7299    8.3692 C.ar    1  UNL1        0.0207
      9 C          62.3863   84.9547    7.1736 C.ar    1  UNL1        0.0989
     10 N          60.9323   84.9512    6.8048 N.ar    1  UNL1       -0.2423
     11 C          59.9469   85.7228    7.6317 C.ar    1  UNL1        0.0989
     12 C          60.4156   86.4980    8.8273 C.ar    1  UNL1        0.0207
     13 C          62.6258   82.7395   12.2849 C.ar    1  UNL1        0.0230
     14 C          63.3451   82.7539   10.9686 C.ar    1  UNL1        0.0040
     15 C          63.5193   84.1841   10.5514 C.ar    1  UNL1        0.0067
     16 C          62.9077   85.0536   11.6097 C.ar    1  UNL1        0.0307
     17 S          62.3555   84.1608   12.6811 S.2     1  UNL1       -0.0899
     18 N          62.6106   80.1559   12.5581 N.3     1  UNL1       -0.3170
     19 C          62.2439   81.5182   13.0676 C.3     1  UNL1        0.0987
     20 H          62.2752   79.4472   13.2106 H       1  UNL1        0.1192
     21 H          63.6246   80.0865   12.4725 H       1  UNL1        0.1192
@<TRIPOS>BOND
     1    18    19    1
     2    19    13    1
     3    13    14   ar
     4    14    15   ar
     5    15    16   ar
     6    16     1    1
     7     1     2   ar
     8     2     3   ar
     9     3     4   ar
    10     4     5   ar
    11     5     6   ar
    12     6     7    1
    13     7     8   ar
    14     8     9   ar
    15     9    10   ar
    16    10    11   ar
    17    11    12   ar
    18    16    17   ar
    19    17    13   ar
    20     6     1   ar
    21    12     7   ar
    22    18    20    1
    23    18    21    1
