@<TRIPOS>MOLECULE
*****
 33 36 0 0 0
SMALL
GASTEIGER

@<TRIPOS>ATOM
      1 N          62.9727   90.8063   11.5782 N.am    1  UNL1       -0.2438
      2 C          63.5515   91.4176   10.3368 C.3     1  UNL1        0.1009
      3 C          64.7250   92.3468   10.4353 C.3     1  UNL1        0.0661
      4 C          65.3196   92.6645   11.7752 C.3     1  UNL1        0.1578
      5 O          64.7408   92.0532   13.0167 O.3     1  UNL1       -0.4375
      6 C          63.5673   91.1241   12.9182 C.2     1  UNL1        0.4051
      7 O          62.9885   90.5127   14.1596 O.2     1  UNL1       -0.2262
      8 C          66.2127   93.4852   10.8926 C.ar    1  UNL1        0.0137
      9 C          67.2894   92.8192   10.0881 C.ar    1  UNL1       -0.0010
     10 C          68.1825   93.6400    9.2055 C.ar    1  UNL1       -0.0002
     11 C          67.9988   95.1266    9.1276 C.ar    1  UNL1       -0.0000
     12 C          66.9222   95.7926    9.9321 C.ar    1  UNL1       -0.0002
     13 C          66.0291   94.9719   10.8146 C.ar    1  UNL1       -0.0010
     14 C          60.4247   90.4278   11.2400 C.3     1  UNL1        0.0265
     15 C          61.7992   89.8772   11.4797 C.3     1  UNL1        0.1011
     16 C          62.0003   88.3974   11.6209 C.ar    1  UNL1       -0.0042
     17 C          61.1033   87.4452   10.8870 C.ar    1  UNL1       -0.0027
     18 C          61.3044   85.9655   11.0282 C.ar    1  UNL1       -0.0003
     19 C          62.4026   85.4380   11.9033 C.ar    1  UNL1       -0.0000
     20 C          63.2996   86.3902   12.6372 C.ar    1  UNL1       -0.0003
     21 C          63.0984   87.8699   12.4960 C.ar    1  UNL1       -0.0027
     22 C          62.6037   83.9582   12.0445 C.ar    1  UNL1        0.0001
     23 C          63.0320   83.1432   10.8604 C.ar    1  UNL1        0.0023
     24 C          63.2331   81.6634   11.0016 C.ar    1  UNL1        0.0296
     25 C          63.0058   80.9987   12.3270 C.ar    1  UNL1        0.1401
     26 F          63.2069   79.5190   12.4682 F       1  UNL1       -0.2042
     27 C          62.5774   81.8138   13.5111 C.ar    1  UNL1        0.0296
     28 C          62.3763   83.2935   13.3699 C.ar    1  UNL1        0.0023
     29 C          66.2245   93.2673   12.8086 C.3     1  UNL1        0.0471
     30 C          66.5986   92.4797   14.0291 C.3     1  UNL1        0.0357
     31 C          68.0241   92.0667   14.2473 C.3     1  UNL1        0.1373
     32 O          68.8844   91.6937   13.0766 O.3     1  UNL1       -0.3820
     33 H          68.5413   90.8835   12.6683 H       1  UNL1        0.2104
@<TRIPOS>BOND
     1    15    14    1
     2    15    16    1
     3    16    17   ar
     4    17    18   ar
     5    18    19   ar
     6    19    22    1
     7    22    23   ar
     8    23    24   ar
     9    24    25   ar
    10    25    26    1
    11    25    27   ar
    12    27    28   ar
    13    19    20   ar
    14    20    21   ar
    15    15     1    1
    16     1     2    1
    17     2     3    1
    18     3     4    1
    19     4    29    1
    20    29    30    1
    21    30    31    1
    22    31    32    1
    23     4     8    1
    24     8     9   ar
    25     9    10   ar
    26    10    11   ar
    27    11    12   ar
    28    12    13   ar
    29     4     5    1
    30     5     6    1
    31     6     7    2
    32    21    16   ar
    33     6     1   am
    34    28    22   ar
    35    13     8   ar
    36    32    33    1
@<TRIPOS>MOLECULE
*****
 33 36 0 0 0
SMALL
GASTEIGER

@<TRIPOS>ATOM
      1 N          63.3353   90.2853   12.0620 N.am    1  UNL1       -0.2438
      2 C          64.0170   90.1790   13.3938 C.3     1  UNL1        0.1009
      3 C          65.2158   91.0297   13.6927 C.3     1  UNL1        0.0661
      4 C          65.7327   91.9867   12.6598 C.3     1  UNL1        0.1578
      5 O          65.0509   92.0930   11.3279 O.3     1  UNL1       -0.4375
      6 C          63.8522   91.2423   11.0290 C.2     1  UNL1        0.4051
      7 O          63.1704   91.3486    9.6971 O.2     1  UNL1       -0.2262
      8 C          66.7122   92.2438   13.7664 C.ar    1  UNL1        0.0137
      9 C          66.2337   92.7860   15.0806 C.ar    1  UNL1       -0.0010
     10 C          67.2132   93.0431   16.1872 C.ar    1  UNL1       -0.0002
     11 C          68.6711   92.7579   15.9796 C.ar    1  UNL1       -0.0000
     12 C          69.1496   92.2157   14.6654 C.ar    1  UNL1       -0.0002
     13 C          68.1701   91.9586   13.5588 C.ar    1  UNL1       -0.0010
     14 C          60.8147   90.0788   11.4671 C.3     1  UNL1        0.0265
     15 C          62.1365   89.4346   11.7630 C.3     1  UNL1        0.1011
     16 C          62.2597   87.9396   11.7601 C.ar    1  UNL1       -0.0042
     17 C          61.4670   87.1238   10.7824 C.ar    1  UNL1       -0.0027
     18 C          61.5902   85.6289   10.7794 C.ar    1  UNL1       -0.0003
     19 C          62.5061   84.9499   11.7542 C.ar    1  UNL1       -0.0000
     20 C          63.2988   85.7657   12.7319 C.ar    1  UNL1       -0.0003
     21 C          63.1756   87.2606   12.7348 C.ar    1  UNL1       -0.0027
     22 C          62.6293   83.4549   11.7512 C.ar    1  UNL1        0.0001
     23 C          62.2651   82.6699   12.9764 C.ar    1  UNL1        0.0023
     24 C          62.3882   81.1749   12.9734 C.ar    1  UNL1        0.0296
     25 C          62.8756   80.4650   11.7452 C.ar    1  UNL1        0.1401
     26 F          62.9988   78.9701   11.7421 F       1  UNL1       -0.2042
     27 C          63.2398   81.2501   10.5199 C.ar    1  UNL1        0.0296
     28 C          63.1166   82.7450   10.5230 C.ar    1  UNL1        0.0023
     29 C          66.5899   93.0330   12.0112 C.3     1  UNL1        0.0471
     30 C          66.7769   93.0323   10.5229 C.3     1  UNL1        0.0357
     31 C          68.0226   92.4497    9.9238 C.3     1  UNL1        0.1373
     32 O          69.2602   93.2886    9.8035 O.3     1  UNL1       -0.3820
     33 H          69.1012   94.0114    9.1765 H       1  UNL1        0.2104
@<TRIPOS>BOND
     1    15    14    1
     2    15    16    1
     3    16    17   ar
     4    17    18   ar
     5    18    19   ar
     6    19    22    1
     7    22    23   ar
     8    23    24   ar
     9    24    25   ar
    10    25    26    1
    11    25    27   ar
    12    27    28   ar
    13    19    20   ar
    14    20    21   ar
    15    15     1    1
    16     1     2    1
    17     2     3    1
    18     3     4    1
    19     4    29    1
    20    29    30    1
    21    30    31    1
    22    31    32    1
    23     4     8    1
    24     8     9   ar
    25     9    10   ar
    26    10    11   ar
    27    11    12   ar
    28    12    13   ar
    29     4     5    1
    30     5     6    1
    31     6     7    2
    32    21    16   ar
    33     6     1   am
    34    28    22   ar
    35    13     8   ar
    36    32    33    1
@<TRIPOS>MOLECULE
*****
 33 36 0 0 0
SMALL
GASTEIGER

@<TRIPOS>ATOM
      1 N          64.1164   91.0511   13.1700 N.am    1  UNL1       -0.2438
      2 C          64.2982   91.6365   11.8010 C.3     1  UNL1        0.1009
      3 C          65.2088   92.8119   11.6027 C.3     1  UNL1        0.0661
      4 C          65.9376   93.4019   12.7735 C.3     1  UNL1        0.1578
      5 O          65.7559   92.8164   14.1426 O.3     1  UNL1       -0.4375
      6 C          64.8453   91.6411   14.3408 C.2     1  UNL1        0.4051
      7 O          64.6635   91.0556   15.7098 O.2     1  UNL1       -0.2262
      8 C          66.4322   94.3006   11.6790 C.ar    1  UNL1        0.0137
      9 C          67.1501   93.7186   10.4976 C.ar    1  UNL1       -0.0010
     10 C          67.6447   94.6173    9.4032 C.ar    1  UNL1       -0.0002
     11 C          67.4213   96.0980    9.4903 C.ar    1  UNL1       -0.0000
     12 C          66.7033   96.6800   10.6717 C.ar    1  UNL1       -0.0002
     13 C          66.2088   95.7813   11.7661 C.ar    1  UNL1       -0.0010
     14 C          62.6131   89.6057   14.7194 C.3     1  UNL1        0.0265
     15 C          63.2058   89.8757   13.3682 C.3     1  UNL1        0.1011
     16 C          62.8880   88.9704   12.2152 C.ar    1  UNL1       -0.0042
     17 C          62.4464   89.5516   10.9048 C.ar    1  UNL1       -0.0027
     18 C          62.1285   88.6463    9.7519 C.ar    1  UNL1       -0.0003
     19 C          62.2523   87.1597    9.9093 C.ar    1  UNL1       -0.0000
     20 C          62.6940   86.5785   11.2197 C.ar    1  UNL1       -0.0003
     21 C          63.0118   87.4838   12.3726 C.ar    1  UNL1       -0.0027
     22 C          61.9345   86.2543    8.7563 C.ar    1  UNL1        0.0001
     23 C          60.5504   86.2334    8.1786 C.ar    1  UNL1        0.0023
     24 C          60.2325   85.3280    7.0256 C.ar    1  UNL1        0.0296
     25 C          61.2988   84.4437    6.4503 C.ar    1  UNL1        0.1401
     26 F          60.9811   83.5384    5.2973 F       1  UNL1       -0.2042
     27 C          62.6830   84.4647    7.0281 C.ar    1  UNL1        0.0296
     28 C          63.0008   85.3700    8.1810 C.ar    1  UNL1        0.0023
     29 C          66.8383   94.3040   13.5642 C.3     1  UNL1        0.0471
     30 C          67.4038   93.8390   14.8733 C.3     1  UNL1        0.0357
     31 C          68.5848   92.9143   14.8941 C.3     1  UNL1        0.1373
     32 O          68.8425   92.0008   13.7326 O.3     1  UNL1       -0.3820
     33 H          68.1270   91.3490   13.6689 H       1  UNL1        0.2104
@<TRIPOS>BOND
     1    15    14    1
     2    15    16    1
     3    16    17   ar
     4    17    18   ar
     5    18    19   ar
     6    19    22    1
     7    22    23   ar
     8    23    24   ar
     9    24    25   ar
    10    25    26    1
    11    25    27   ar
    12    27    28   ar
    13    19    20   ar
    14    20    21   ar
    15    15     1    1
    16     1     2    1
    17     2     3    1
    18     3     4    1
    19     4    29    1
    20    29    30    1
    21    30    31    1
    22    31    32    1
    23     4     8    1
    24     8     9   ar
    25     9    10   ar
    26    10    11   ar
    27    11    12   ar
    28    12    13   ar
    29     4     5    1
    30     5     6    1
    31     6     7    2
    32    21    16   ar
    33     6     1   am
    34    28    22   ar
    35    13     8   ar
    36    32    33    1
@<TRIPOS>MOLECULE
*****
 33 36 0 0 0
SMALL
GASTEIGER

@<TRIPOS>ATOM
      1 N          62.4425   87.8231   12.3205 N.am    1  UNL1       -0.2438
      2 C          62.0690   86.7391   11.3534 C.3     1  UNL1        0.1009
      3 C          62.5861   85.3453   11.5528 C.3     1  UNL1        0.0661
      4 C          63.4766   85.0354   12.7193 C.3     1  UNL1        0.1578
      5 O          63.8501   86.1194   13.6866 O.3     1  UNL1       -0.4375
      6 C          63.3331   87.5133   13.4871 C.2     1  UNL1        0.4051
      7 O          63.7066   88.5973   14.4543 O.2     1  UNL1       -0.2262
      8 C          63.4036   83.6803   12.0802 C.ar    1  UNL1        0.0137
      9 C          64.1395   83.4140   10.8006 C.ar    1  UNL1       -0.0010
     10 C          64.0665   82.0589   10.1615 C.ar    1  UNL1       -0.0002
     11 C          63.2576   80.9702   10.8021 C.ar    1  UNL1       -0.0000
     12 C          62.5217   81.2365   12.0818 C.ar    1  UNL1       -0.0002
     13 C          62.5947   82.5916   12.7209 C.ar    1  UNL1       -0.0010
     14 C          60.4767   89.5213   12.3629 C.3     1  UNL1        0.0265
     15 C          61.9255   89.2170   12.1211 C.3     1  UNL1        0.1011
     16 C          62.8573   90.3066   11.6798 C.ar    1  UNL1       -0.0042
     17 C          63.8371   90.8946   12.6514 C.ar    1  UNL1       -0.0027
     18 C          64.7688   91.9842   12.2101 C.ar    1  UNL1       -0.0003
     19 C          64.7207   92.4857   10.7972 C.ar    1  UNL1       -0.0000
     20 C          63.7408   91.8977    9.8257 C.ar    1  UNL1       -0.0003
     21 C          62.8091   90.8081   10.2670 C.ar    1  UNL1       -0.0027
     22 C          65.6524   93.5753   10.3560 C.ar    1  UNL1        0.0001
     23 C          65.3334   95.0072   10.6686 C.ar    1  UNL1        0.0023
     24 C          66.2652   96.0968   10.2274 C.ar    1  UNL1        0.0296
     25 C          67.5160   95.7544    9.4735 C.ar    1  UNL1        0.1401
     26 F          68.4477   96.8439    9.0322 F       1  UNL1       -0.2042
     27 C          67.8349   94.3224    9.1608 C.ar    1  UNL1        0.0296
     28 C          66.9032   93.2329    9.6021 C.ar    1  UNL1        0.0023
     29 C          64.3418   84.2549   13.6640 C.3     1  UNL1        0.0471
     30 C          64.2029   84.4514   15.1445 C.3     1  UNL1        0.0357
     31 C          62.8889   84.1838   15.8167 C.3     1  UNL1        0.1373
     32 O          61.9883   85.3256   16.1843 O.3     1  UNL1       -0.3820
     33 H          62.4137   85.8655   16.8686 H       1  UNL1        0.2104
@<TRIPOS>BOND
     1    15    14    1
     2    15    16    1
     3    16    17   ar
     4    17    18   ar
     5    18    19   ar
     6    19    22    1
     7    22    23   ar
     8    23    24   ar
     9    24    25   ar
    10    25    26    1
    11    25    27   ar
    12    27    28   ar
    13    19    20   ar
    14    20    21   ar
    15    15     1    1
    16     1     2    1
    17     2     3    1
    18     3     4    1
    19     4    29    1
    20    29    30    1
    21    30    31    1
    22    31    32    1
    23     4     8    1
    24     8     9   ar
    25     9    10   ar
    26    10    11   ar
    27    11    12   ar
    28    12    13   ar
    29     4     5    1
    30     5     6    1
    31     6     7    2
    32    21    16   ar
    33     6     1   am
    34    28    22   ar
    35    13     8   ar
    36    32    33    1
@<TRIPOS>MOLECULE
*****
 33 36 0 0 0
SMALL
GASTEIGER

@<TRIPOS>ATOM
      1 N          62.1116   88.2996   11.2565 N.am    1  UNL1       -0.2438
      2 C          62.6389   87.2177   12.1516 C.3     1  UNL1        0.1009
      3 C          62.7786   85.8171   11.6333 C.3     1  UNL1        0.0661
      4 C          62.3909   85.4983   10.2197 C.3     1  UNL1        0.1578
      5 O          61.8636   86.5803    9.3245 O.3     1  UNL1       -0.4375
      6 C          61.7239   87.9809    9.8429 C.2     1  UNL1        0.4051
      7 O          61.1966   89.0629    8.9478 O.2     1  UNL1       -0.2262
      8 C          62.8375   84.1421   10.6794 C.ar    1  UNL1        0.0137
      9 C          63.8351   83.3670    9.8707 C.ar    1  UNL1       -0.0010
     10 C          64.2817   82.0108   10.3304 C.ar    1  UNL1       -0.0002
     11 C          63.7306   81.4298   11.5988 C.ar    1  UNL1       -0.0000
     12 C          62.7330   82.2049   12.4074 C.ar    1  UNL1       -0.0002
     13 C          62.2864   83.5611   11.9478 C.ar    1  UNL1       -0.0010
     14 C          60.6784   90.4392   11.6000 C.3     1  UNL1        0.0265
     15 C          61.9719   89.7002   11.7749 C.3     1  UNL1        0.1011
     16 C          63.1259   90.3619   12.4682 C.ar    1  UNL1       -0.0042
     17 C          63.9719   91.3581   11.7321 C.ar    1  UNL1       -0.0027
     18 C          65.1258   92.0197   12.4255 C.ar    1  UNL1       -0.0003
     19 C          65.4337   91.6851   13.8549 C.ar    1  UNL1       -0.0000
     20 C          64.5877   90.6889   14.5910 C.ar    1  UNL1       -0.0003
     21 C          63.4338   90.0273   13.8977 C.ar    1  UNL1       -0.0027
     22 C          66.5877   92.3468   14.5482 C.ar    1  UNL1        0.0001
     23 C          67.5577   91.5232   15.3423 C.ar    1  UNL1        0.0023
     24 C          68.7117   92.1849   16.0356 C.ar    1  UNL1        0.0296
     25 C          68.8955   93.6702   15.9348 C.ar    1  UNL1        0.1401
     26 F          70.0494   94.3318   16.6281 F       1  UNL1       -0.2042
     27 C          67.9254   94.4938   15.1406 C.ar    1  UNL1        0.0296
     28 C          66.7715   93.8321   14.4474 C.ar    1  UNL1        0.0023
     29 C          62.1583   84.7086    8.9658 C.3     1  UNL1        0.0471
     30 C          62.3605   85.3519    7.6260 C.3     1  UNL1        0.0357
     31 C          62.2147   84.5388    6.3739 C.3     1  UNL1        0.1373
     32 O          60.8512   84.1356    5.8960 O.3     1  UNL1       -0.3820
     33 H          60.4528   83.5235    6.5344 H       1  UNL1        0.2104
@<TRIPOS>BOND
     1    15    14    1
     2    15    16    1
     3    16    17   ar
     4    17    18   ar
     5    18    19   ar
     6    19    22    1
     7    22    23   ar
     8    23    24   ar
     9    24    25   ar
    10    25    26    1
    11    25    27   ar
    12    27    28   ar
    13    19    20   ar
    14    20    21   ar
    15    15     1    1
    16     1     2    1
    17     2     3    1
    18     3     4    1
    19     4    29    1
    20    29    30    1
    21    30    31    1
    22    31    32    1
    23     4     8    1
    24     8     9   ar
    25     9    10   ar
    26    10    11   ar
    27    11    12   ar
    28    12    13   ar
    29     4     5    1
    30     5     6    1
    31     6     7    2
    32    21    16   ar
    33     6     1   am
    34    28    22   ar
    35    13     8   ar
    36    32    33    1
@<TRIPOS>MOLECULE
*****
 33 36 0 0 0
SMALL
GASTEIGER

@<TRIPOS>ATOM
      1 N          61.9710   88.2930   11.0948 N.am    1  UNL1       -0.2438
      2 C          61.4251   88.2359    9.6989 C.3     1  UNL1        0.1009
      3 C          61.6440   87.0136    8.8575 C.3     1  UNL1        0.0661
      4 C          62.4088   85.8484    9.4119 C.3     1  UNL1        0.1578
      5 O          62.9547   85.9055   10.8079 O.3     1  UNL1       -0.4375
      6 C          62.7359   87.1278   11.6494 C.2     1  UNL1        0.4051
      7 O          63.2818   87.1850   13.0453 O.2     1  UNL1       -0.2262
      8 C          62.0900   85.3233    8.0434 C.ar    1  UNL1        0.0137
      9 C          60.6770   85.3489    7.5407 C.ar    1  UNL1       -0.0010
     10 C          60.3582   84.8238    6.1722 C.ar    1  UNL1       -0.0002
     11 C          61.4525   84.2730    5.3066 C.ar    1  UNL1       -0.0000
     12 C          62.8655   84.2473    5.8094 C.ar    1  UNL1       -0.0002
     13 C          63.1842   84.7725    7.1779 C.ar    1  UNL1       -0.0010
     14 C          60.3657   90.0534   12.1310 C.3     1  UNL1        0.0265
     15 C          61.7522   89.5153   11.9363 C.3     1  UNL1        0.1011
     16 C          62.9199   90.1995   12.5831 C.ar    1  UNL1       -0.0042
     17 C          63.8210   91.0778   11.7666 C.ar    1  UNL1       -0.0027
     18 C          64.9887   91.7620   12.4135 C.ar    1  UNL1       -0.0003
     19 C          65.2553   91.5678   13.8767 C.ar    1  UNL1       -0.0000
     20 C          64.3543   90.6895   14.6932 C.ar    1  UNL1       -0.0003
     21 C          63.1866   90.0054   14.0464 C.ar    1  UNL1       -0.0027
     22 C          66.4231   92.2520   14.5235 C.ar    1  UNL1        0.0001
     23 C          66.6164   93.7294   14.3510 C.ar    1  UNL1        0.0023
     24 C          67.7842   94.4137   14.9978 C.ar    1  UNL1        0.0296
     25 C          68.7585   93.6204   15.8171 C.ar    1  UNL1        0.1401
     26 F          69.9262   94.3045   16.4639 F       1  UNL1       -0.2042
     27 C          68.5652   92.1429   15.9896 C.ar    1  UNL1        0.0296
     28 C          67.3974   91.4587   15.3429 C.ar    1  UNL1        0.0023
     29 C          63.0629   84.5008    9.4911 C.3     1  UNL1        0.0471
     30 C          63.2385   83.8294   10.8209 C.3     1  UNL1        0.0357
     31 C          64.0003   82.5407   10.9156 C.3     1  UNL1        0.1373
     32 O          65.1898   82.4377   11.8236 O.3     1  UNL1       -0.3820
     33 H          65.8950   83.0198   11.5000 H       1  UNL1        0.2104
@<TRIPOS>BOND
     1    15    14    1
     2    15    16    1
     3    16    17   ar
     4    17    18   ar
     5    18    19   ar
     6    19    22    1
     7    22    23   ar
     8    23    24   ar
     9    24    25   ar
    10    25    26    1
    11    25    27   ar
    12    27    28   ar
    13    19    20   ar
    14    20    21   ar
    15    15     1    1
    16     1     2    1
    17     2     3    1
    18     3     4    1
    19     4    29    1
    20    29    30    1
    21    30    31    1
    22    31    32    1
    23     4     8    1
    24     8     9   ar
    25     9    10   ar
    26    10    11   ar
    27    11    12   ar
    28    12    13   ar
    29     4     5    1
    30     5     6    1
    31     6     7    2
    32    21    16   ar
    33     6     1   am
    34    28    22   ar
    35    13     8   ar
    36    32    33    1
