@<TRIPOS>MOLECULE
*****
 36 39 0 0 0
SMALL
GASTEIGER

@<TRIPOS>ATOM
      1 C          62.7068   89.5453   11.8084 C.ar    1  UNL1        0.1823
      2 O          62.3260   90.4686   10.6892 O.2     1  UNL1       -0.3532
      3 N          61.9820   89.6305    9.4937 N.ar    1  UNL1       -0.0807
      4 C          62.1501   88.1892    9.8740 C.ar    1  UNL1        0.1103
      5 C          62.5981   88.1366   11.3046 C.ar    1  UNL1        0.0884
      6 BR         62.8867   86.8936   12.0929 Br      1  UNL1       -0.0444
      7 C          61.9121   87.0081    8.9806 C.3     1  UNL1        0.0883
      8 C          63.0687   86.1721    8.5186 C.3     1  UNL1        0.0773
      9 N          62.8307   84.9910    7.6252 N.3     1  UNL1       -0.2970
     10 C          61.4361   84.6457    7.1938 C.3     1  UNL1        0.0714
     11 C          60.2796   85.4817    7.6559 C.3     1  UNL1        0.0486
     12 C          60.5176   86.6629    8.5493 C.3     1  UNL1        0.1149
     13 O          59.0258   86.7368    8.4117 O.3     1  UNL1       -0.3822
     14 H          63.1988   84.1741    8.1127 H       1  UNL1        0.1233
     15 H          58.7172   86.0135    7.8437 H       1  UNL1        0.2107
     16 C          60.2375   87.8698    9.3949 C.ar    1  UNL1        0.0045
     17 C          60.2456   89.2366    8.7773 C.ar    1  UNL1        0.0004
     18 C          59.9656   90.4435    9.6229 C.ar    1  UNL1        0.0317
     19 C          59.6774   90.2834   11.0863 C.ar    1  UNL1        0.1674
     20 F          59.3974   91.4902   11.9319 F       1  UNL1       -0.2018
     21 C          59.6693   88.9165   11.7040 C.ar    1  UNL1        0.1671
     22 F          59.3811   88.7564   13.1673 F       1  UNL1       -0.2018
     23 C          59.9493   87.7097   10.8583 C.ar    1  UNL1        0.0299
     24 C          64.1920   90.9947   13.3716 C.ar    1  UNL1       -0.0174
     25 C          64.6083   91.4076   14.7522 C.ar    1  UNL1       -0.0041
     26 C          63.9558   90.7840   15.9503 C.ar    1  UNL1       -0.0003
     27 C          62.8870   89.7475   15.7678 C.ar    1  UNL1        0.0001
     28 C          62.4707   89.3346   14.3872 C.ar    1  UNL1        0.0028
     29 C          63.1232   89.9582   13.1891 C.ar    1  UNL1        0.0338
     30 C          64.8444   91.6183   12.1735 C.3     1  UNL1        0.0477
     31 C          65.9813   92.5800   12.3542 C.3     1  UNL1        0.0941
     32 C          66.2543   96.3091   11.0241 C.3     1  UNL1        0.0946
     33 C          66.4894   94.8346   11.1673 C.2     1  UNL1        0.2230
     34 O          67.4675   94.1401   10.2668 O.2     1  UNL1       -0.2751
     35 N          65.7462   94.0546   12.2110 N.am    1  UNL1       -0.3040
     36 H          65.1042   94.5104   12.8020 H       1  UNL1        0.1494
@<TRIPOS>BOND
     1    32    33    1
     2    33    34    2
     3    33    35   am
     4    35    31    1
     5    31    30    1
     6    30    24    1
     7    24    25   ar
     8    25    26   ar
     9    26    27   ar
    10    27    28   ar
    11    28    29   ar
    12    29     1    1
    13     1     2   ar
    14     2     3   ar
    15     3     4   ar
    16     7     4    1
    17     7     8    1
    18     8     9    1
    19     9    10    1
    20    10    11    1
    21    11    12    1
    22    12    13    1
    23    12    16    1
    24    16    17   ar
    25    17    18   ar
    26    18    19   ar
    27    19    20    1
    28    19    21   ar
    29    21    22    1
    30    21    23   ar
    31     4     5   ar
    32     5     6    1
    33    29    24   ar
    34     5     1   ar
    35    12     7    1
    36    23    16   ar
    37    35    36    1
    38     9    14    1
    39    13    15    1
@<TRIPOS>MOLECULE
*****
 36 39 0 0 0
SMALL
GASTEIGER

@<TRIPOS>ATOM
      1 C          61.2927   95.6314   -1.2148 C.ar    1  UNL1        0.1823
      2 O          61.9406   96.5928   -0.2630 O.2     1  UNL1       -0.3532
      3 N          62.1342   95.8885    1.0471 N.ar    1  UNL1       -0.0807
      4 C          61.6059   94.4917    0.9050 C.ar    1  UNL1        0.1103
      5 C          61.0859   94.3329   -0.4929 C.ar    1  UNL1        0.0884
      6 BR         60.4675   93.0931   -1.0680 Br      1  UNL1       -0.0444
      7 C          61.5990   93.4388    1.9733 C.3     1  UNL1        0.0883
      8 C          60.3298   93.1247    2.7085 C.3     1  UNL1        0.0773
      9 N          60.3228   92.0717    3.7768 N.3     1  UNL1       -0.2970
     10 C          61.5851   91.3330    4.1099 C.3     1  UNL1        0.0714
     11 C          62.8543   91.6472    3.3748 C.3     1  UNL1        0.0486
     12 C          62.8612   92.7001    2.3065 C.3     1  UNL1        0.1149
     13 O          64.2993   92.2759    2.2635 O.3     1  UNL1       -0.3822
     14 H          59.6372   91.3711    3.4951 H       1  UNL1        0.1233
     15 H          64.4504   91.5782    2.9202 H       1  UNL1        0.2107
     16 C          63.3676   93.6057    1.2232 C.ar    1  UNL1        0.0045
     17 C          63.8530   94.9835    1.5634 C.ar    1  UNL1        0.0004
     18 C          64.3593   95.8892    0.4801 C.ar    1  UNL1        0.0317
     19 C          64.3803   95.4168   -0.9434 C.ar    1  UNL1        0.1674
     20 F          64.8866   96.3224   -2.0267 F       1  UNL1       -0.2018
     21 C          63.8948   94.0389   -1.2837 C.ar    1  UNL1        0.1671
     22 F          63.9158   93.5666   -2.7072 F       1  UNL1       -0.2018
     23 C          63.3885   93.1334   -0.2004 C.ar    1  UNL1        0.0299
     24 C          59.5181   96.3409   -2.9749 C.ar    1  UNL1       -0.0174
     25 C          59.1430   96.6275   -4.3986 C.ar    1  UNL1       -0.0041
     26 C          60.1671   96.4915   -5.4860 C.ar    1  UNL1       -0.0003
     27 C          61.5665   96.0687   -5.1498 C.ar    1  UNL1        0.0001
     28 C          61.9416   95.7820   -3.7261 C.ar    1  UNL1        0.0028
     29 C          60.9175   95.9181   -2.6386 C.ar    1  UNL1        0.0338
     30 C          58.4940   96.4770   -1.8874 C.3     1  UNL1        0.0477
     31 C          57.5729   95.3344   -1.5773 C.3     1  UNL1        0.0941
     32 C          56.5172   91.9110   -3.2850 C.3     1  UNL1        0.0946
     33 C          56.8238   92.9343   -2.2320 C.2     1  UNL1        0.2230
     34 O          56.6879   92.5809   -0.7806 O.2     1  UNL1       -0.2751
     35 N          57.2664   94.3111   -2.6304 N.am    1  UNL1       -0.3040
     36 H          57.3556   94.5431   -3.5830 H       1  UNL1        0.1494
@<TRIPOS>BOND
     1    32    33    1
     2    33    34    2
     3    33    35   am
     4    35    31    1
     5    31    30    1
     6    30    24    1
     7    24    25   ar
     8    25    26   ar
     9    26    27   ar
    10    27    28   ar
    11    28    29   ar
    12    29     1    1
    13     1     2   ar
    14     2     3   ar
    15     3     4   ar
    16     7     4    1
    17     7     8    1
    18     8     9    1
    19     9    10    1
    20    10    11    1
    21    11    12    1
    22    12    13    1
    23    12    16    1
    24    16    17   ar
    25    17    18   ar
    26    18    19   ar
    27    19    20    1
    28    19    21   ar
    29    21    22    1
    30    21    23   ar
    31     4     5   ar
    32     5     6    1
    33    29    24   ar
    34     5     1   ar
    35    12     7    1
    36    23    16   ar
    37    35    36    1
    38     9    14    1
    39    13    15    1
@<TRIPOS>MOLECULE
*****
 36 39 0 0 0
SMALL
GASTEIGER

@<TRIPOS>ATOM
      1 C          58.9965   94.3111   -1.5637 C.ar    1  UNL1        0.1823
      2 O          59.6839   93.5397   -2.6510 O.2     1  UNL1       -0.3532
      3 N          61.1020   93.3008   -2.2245 N.ar    1  UNL1       -0.0807
      4 C          61.2910   93.9246   -0.8734 C.ar    1  UNL1        0.1103
      5 C          59.9897   94.5489   -0.4651 C.ar    1  UNL1        0.0884
      6 BR         59.7276   95.2824    0.8168 Br      1  UNL1       -0.0444
      7 C          62.5587   93.9240   -0.0716 C.3     1  UNL1        0.0883
      8 C          62.7008   93.0059    1.1060 C.3     1  UNL1        0.0773
      9 N          63.9685   93.0053    1.9078 N.3     1  UNL1       -0.2970
     10 C          65.0940   93.9230    1.5321 C.3     1  UNL1        0.0714
     11 C          64.9519   94.8412    0.3545 C.3     1  UNL1        0.0486
     12 C          63.6842   94.8417   -0.4473 C.3     1  UNL1        0.1149
     13 O          64.4634   95.8854   -1.1913 O.3     1  UNL1       -0.3822
     14 H          64.3387   92.0555    1.8727 H       1  UNL1        0.1233
     15 H          65.3324   95.9978   -0.7753 H       1  UNL1        0.2107
     16 C          62.6870   95.2047   -1.5076 C.ar    1  UNL1        0.0045
     17 C          61.7109   96.3183   -1.2694 C.ar    1  UNL1        0.0004
     18 C          60.7137   96.6812   -2.3296 C.ar    1  UNL1        0.0317
     19 C          60.6929   95.9305   -3.6281 C.ar    1  UNL1        0.1674
     20 F          59.6958   96.2934   -4.6883 F       1  UNL1       -0.2018
     21 C          61.6691   94.8168   -3.8663 C.ar    1  UNL1        0.1671
     22 F          61.6482   94.0661   -5.1647 F       1  UNL1       -0.2018
     23 C          62.6662   94.4539   -2.8061 C.ar    1  UNL1        0.0299
     24 C          56.4593   93.7543   -1.6183 C.ar    1  UNL1       -0.0174
     25 C          55.0297   94.2082   -1.6278 C.ar    1  UNL1       -0.0041
     26 C          54.7075   95.6727   -1.5923 C.ar    1  UNL1       -0.0003
     27 C          55.8150   96.6834   -1.5473 C.ar    1  UNL1        0.0001
     28 C          57.2446   96.2295   -1.5377 C.ar    1  UNL1        0.0028
     29 C          57.5668   94.7650   -1.5732 C.ar    1  UNL1        0.0338
     30 C          56.7815   92.2897   -1.6538 C.3     1  UNL1        0.0477
     31 C          56.0686   91.3881   -2.6176 C.3     1  UNL1        0.0941
     32 C          57.2466   91.6057   -6.4011 C.3     1  UNL1        0.0946
     33 C          56.6043   91.9640   -5.0938 C.2     1  UNL1        0.2230
     34 O          55.8553   93.2562   -4.9553 O.2     1  UNL1       -0.2751
     35 N          56.7110   91.0299   -3.9249 N.am    1  UNL1       -0.3040
     36 H          57.2025   90.1818   -4.0158 H       1  UNL1        0.1494
@<TRIPOS>BOND
     1    32    33    1
     2    33    34    2
     3    33    35   am
     4    35    31    1
     5    31    30    1
     6    30    24    1
     7    24    25   ar
     8    25    26   ar
     9    26    27   ar
    10    27    28   ar
    11    28    29   ar
    12    29     1    1
    13     1     2   ar
    14     2     3   ar
    15     3     4   ar
    16     7     4    1
    17     7     8    1
    18     8     9    1
    19     9    10    1
    20    10    11    1
    21    11    12    1
    22    12    13    1
    23    12    16    1
    24    16    17   ar
    25    17    18   ar
    26    18    19   ar
    27    19    20    1
    28    19    21   ar
    29    21    22    1
    30    21    23   ar
    31     4     5   ar
    32     5     6    1
    33    29    24   ar
    34     5     1   ar
    35    12     7    1
    36    23    16   ar
    37    35    36    1
    38     9    14    1
    39    13    15    1
@<TRIPOS>MOLECULE
*****
 36 39 0 0 0
SMALL
GASTEIGER

@<TRIPOS>ATOM
      1 C          59.7798   94.2440   -1.5090 C.ar    1  UNL1        0.1823
      2 O          60.4779   92.9793   -1.1051 O.2     1  UNL1       -0.3532
      3 N          61.9521   93.2542   -1.0711 N.ar    1  UNL1       -0.0807
      4 C          62.1652   94.6888   -1.4540 C.ar    1  UNL1        0.1103
      5 C          60.8226   95.3006   -1.7246 C.ar    1  UNL1        0.0884
      6 BR         60.5676   96.7197   -2.1382 Br      1  UNL1       -0.0444
      7 C          63.4884   95.3888   -1.5494 C.3     1  UNL1        0.0883
      8 C          64.0791   95.6959   -2.8935 C.3     1  UNL1        0.0773
      9 N          65.4023   96.3958   -2.9889 N.3     1  UNL1       -0.2970
     10 C          66.1348   96.7886   -1.7403 C.3     1  UNL1        0.0714
     11 C          65.5441   96.4815   -0.3961 C.3     1  UNL1        0.0486
     12 C          64.2209   95.7815   -0.3007 C.3     1  UNL1        0.1149
     13 O          64.5312   95.9517    1.1569 O.3     1  UNL1       -0.3822
     14 H          65.2447   97.2525   -3.5197 H       1  UNL1        0.1233
     15 H          65.3840   96.4034    1.2553 H       1  UNL1        0.2107
     16 C          63.0054   95.1407    0.3009 C.ar    1  UNL1        0.0045
     17 C          62.9883   93.6640    0.5635 C.ar    1  UNL1        0.0004
     18 C          61.7727   93.0232    1.1651 C.ar    1  UNL1        0.0317
     19 C          60.5743   93.8592    1.5042 C.ar    1  UNL1        0.1674
     20 F          59.3589   93.2184    2.1058 F       1  UNL1       -0.2018
     21 C          60.5914   95.3359    1.2416 C.ar    1  UNL1        0.1671
     22 F          59.3930   96.1719    1.5807 F       1  UNL1       -0.2018
     23 C          61.8069   95.9767    0.6400 C.ar    1  UNL1        0.0299
     24 C          57.5201   93.4772   -2.5365 C.ar    1  UNL1       -0.0174
     25 C          56.0393   93.6544   -2.6967 C.ar    1  UNL1       -0.0041
     26 C          55.3372   94.7756   -1.9896 C.ar    1  UNL1       -0.0003
     27 C          56.1160   95.7196   -1.1223 C.ar    1  UNL1        0.0001
     28 C          57.5969   95.5424   -0.9621 C.ar    1  UNL1        0.0028
     29 C          58.2989   94.4212   -1.6692 C.ar    1  UNL1        0.0338
     30 C          58.2222   92.3560   -3.2437 C.3     1  UNL1        0.0477
     31 C          57.4675   91.4863   -4.2049 C.3     1  UNL1        0.0941
     32 C          55.4333   92.0804   -7.5604 C.3     1  UNL1        0.0946
     33 C          55.8184   91.5490   -6.2116 C.2     1  UNL1        0.2230
     34 O          54.9396   90.5489   -5.5207 O.2     1  UNL1       -0.2751
     35 N          57.0824   92.0177   -5.5537 N.am    1  UNL1       -0.3040
     36 H          57.6592   92.6742   -6.0072 H       1  UNL1        0.1494
@<TRIPOS>BOND
     1    32    33    1
     2    33    34    2
     3    33    35   am
     4    35    31    1
     5    31    30    1
     6    30    24    1
     7    24    25   ar
     8    25    26   ar
     9    26    27   ar
    10    27    28   ar
    11    28    29   ar
    12    29     1    1
    13     1     2   ar
    14     2     3   ar
    15     3     4   ar
    16     7     4    1
    17     7     8    1
    18     8     9    1
    19     9    10    1
    20    10    11    1
    21    11    12    1
    22    12    13    1
    23    12    16    1
    24    16    17   ar
    25    17    18   ar
    26    18    19   ar
    27    19    20    1
    28    19    21   ar
    29    21    22    1
    30    21    23   ar
    31     4     5   ar
    32     5     6    1
    33    29    24   ar
    34     5     1   ar
    35    12     7    1
    36    23    16   ar
    37    35    36    1
    38     9    14    1
    39    13    15    1
@<TRIPOS>MOLECULE
*****
 36 39 0 0 0
SMALL
GASTEIGER

@<TRIPOS>ATOM
      1 C          60.2351   94.1178   -1.5808 C.ar    1  UNL1        0.1823
      2 O          60.9128   92.8534   -1.1428 O.2     1  UNL1       -0.3532
      3 N          62.3552   93.1685   -0.8775 N.ar    1  UNL1       -0.0807
      4 C          62.5689   94.6277   -1.1517 C.ar    1  UNL1        0.1103
      5 C          61.2586   95.2144   -1.5863 C.ar    1  UNL1        0.0884
      6 BR         61.0146   96.6463   -1.9608 Br      1  UNL1       -0.0444
      7 C          63.8652   95.3699   -1.0151 C.3     1  UNL1        0.0883
      8 C          64.6526   95.7354   -2.2384 C.3     1  UNL1        0.0773
      9 N          65.9489   96.4776   -2.1019 N.3     1  UNL1       -0.2970
     10 C          66.4579   96.8542   -0.7421 C.3     1  UNL1        0.0714
     11 C          65.6705   96.4887    0.4812 C.3     1  UNL1        0.0486
     12 C          64.3742   95.7465    0.3447 C.3     1  UNL1        0.1149
     13 O          64.4410   95.8817    1.8371 O.3     1  UNL1       -0.3822
     14 H          65.8486   97.3448   -2.6294 H       1  UNL1        0.1233
     15 H          65.2507   96.3558    2.0829 H       1  UNL1        0.2107
     16 C          63.1010   95.0513    0.7264 C.ar    1  UNL1        0.0045
     17 C          63.0909   93.5659    0.9345 C.ar    1  UNL1        0.0004
     18 C          61.8176   92.8707    1.3163 C.ar    1  UNL1        0.0317
     19 C          60.5545   93.6610    1.4898 C.ar    1  UNL1        0.1674
     20 F          59.2814   92.9657    1.8715 F       1  UNL1       -0.2018
     21 C          60.5647   95.1464    1.2817 C.ar    1  UNL1        0.1671
     22 F          59.3016   95.9366    1.4552 F       1  UNL1       -0.2018
     23 C          61.8379   95.8416    0.9000 C.ar    1  UNL1        0.0299
     24 C          58.3594   94.1125   -3.3786 C.ar    1  UNL1       -0.0174
     25 C          56.9123   94.2553   -3.7465 C.ar    1  UNL1       -0.0041
     26 C          55.8937   94.5462   -2.6846 C.ar    1  UNL1       -0.0003
     27 C          56.3221   94.6943   -1.2548 C.ar    1  UNL1        0.0001
     28 C          57.7692   94.5515   -0.8869 C.ar    1  UNL1        0.0028
     29 C          58.7879   94.2606   -1.9488 C.ar    1  UNL1        0.0338
     30 C          59.3781   93.8216   -4.4405 C.3     1  UNL1        0.0477
     31 C          59.9136   94.9349   -5.2912 C.3     1  UNL1        0.0941
     32 C          63.2266   93.9040   -7.2178 C.3     1  UNL1        0.0946
     33 C          62.2725   94.2062   -6.1005 C.2     1  UNL1        0.2230
     34 O          62.7230   94.0817   -4.6752 O.2     1  UNL1       -0.2751
     35 N          60.8677   94.6328   -6.4085 N.am    1  UNL1       -0.3040
     36 H          60.5720   94.7144   -7.3440 H       1  UNL1        0.1494
@<TRIPOS>BOND
     1    32    33    1
     2    33    34    2
     3    33    35   am
     4    35    31    1
     5    31    30    1
     6    30    24    1
     7    24    25   ar
     8    25    26   ar
     9    26    27   ar
    10    27    28   ar
    11    28    29   ar
    12    29     1    1
    13     1     2   ar
    14     2     3   ar
    15     3     4   ar
    16     7     4    1
    17     7     8    1
    18     8     9    1
    19     9    10    1
    20    10    11    1
    21    11    12    1
    22    12    13    1
    23    12    16    1
    24    16    17   ar
    25    17    18   ar
    26    18    19   ar
    27    19    20    1
    28    19    21   ar
    29    21    22    1
    30    21    23   ar
    31     4     5   ar
    32     5     6    1
    33    29    24   ar
    34     5     1   ar
    35    12     7    1
    36    23    16   ar
    37    35    36    1
    38     9    14    1
    39    13    15    1
@<TRIPOS>MOLECULE
*****
 36 39 0 0 0
SMALL
GASTEIGER

@<TRIPOS>ATOM
      1 C          60.1076   93.6437   -2.5660 C.ar    1  UNL1        0.1823
      2 O          59.3383   92.3562   -2.5461 O.2     1  UNL1       -0.3532
      3 N          58.0387   92.5818   -3.2603 N.ar    1  UNL1       -0.0807
      4 C          58.0048   94.0087   -3.7216 C.ar    1  UNL1        0.1103
      5 C          59.2835   94.6650   -3.2924 C.ar    1  UNL1        0.0884
      6 BR         59.6702   96.0920   -3.5454 Br      1  UNL1       -0.0444
      7 C          56.8883   94.6642   -4.4790 C.3     1  UNL1        0.0883
      8 C          57.0260   94.9132   -5.9518 C.3     1  UNL1        0.0773
      9 N          55.9095   95.5687   -6.7092 N.3     1  UNL1       -0.2970
     10 C          54.6553   95.9753   -5.9938 C.3     1  UNL1        0.0714
     11 C          54.5176   95.7263   -4.5210 C.3     1  UNL1        0.0486
     12 C          55.6341   95.0708   -3.7636 C.3     1  UNL1        0.1149
     13 O          54.6489   95.2743   -2.6510 O.3     1  UNL1       -0.3822
     14 H          55.6315   94.9190   -7.4447 H       1  UNL1        0.1233
     15 H          53.8512   95.7021   -2.9997 H       1  UNL1        0.2107
     16 C          56.4085   94.4859   -2.6198 C.ar    1  UNL1        0.0045
     17 C          56.3235   93.0168   -2.3299 C.ar    1  UNL1        0.0004
     18 C          57.0979   92.4319   -1.1861 C.ar    1  UNL1        0.0317
     19 C          57.9574   93.3164   -0.3322 C.ar    1  UNL1        0.1674
     20 F          58.7318   92.7315    0.8116 F       1  UNL1       -0.2018
     21 C          58.0424   94.7856   -0.6221 C.ar    1  UNL1        0.1671
     22 F          58.9019   95.6700    0.2317 F       1  UNL1       -0.2018
     23 C          57.2680   95.3704   -1.7659 C.ar    1  UNL1        0.0299
     24 C          62.6887   93.7877   -2.8258 C.ar    1  UNL1       -0.0174
     25 C          64.0442   94.0141   -2.2247 C.ar    1  UNL1       -0.0041
     26 C          64.1741   94.3231   -0.7626 C.ar    1  UNL1       -0.0003
     27 C          62.9486   94.4056    0.0983 C.ar    1  UNL1        0.0001
     28 C          61.5932   94.1791   -0.5028 C.ar    1  UNL1        0.0028
     29 C          61.4632   93.8702   -1.9649 C.ar    1  UNL1        0.0338
     30 C          62.5587   93.4787   -4.2879 C.3     1  UNL1        0.0477
     31 C          63.7876   93.3260   -5.1343 C.3     1  UNL1        0.0941
     32 C          65.6034   90.5503   -7.3135 C.3     1  UNL1        0.0946
     33 C          65.3154   91.8585   -6.6385 C.2     1  UNL1        0.2230
     34 O          66.2672   93.0075   -6.7927 O.2     1  UNL1       -0.2751
     35 N          64.0756   92.0177   -5.8093 N.am    1  UNL1       -0.3040
     36 H          63.4509   91.2636   -5.7081 H       1  UNL1        0.1494
@<TRIPOS>BOND
     1    32    33    1
     2    33    34    2
     3    33    35   am
     4    35    31    1
     5    31    30    1
     6    30    24    1
     7    24    25   ar
     8    25    26   ar
     9    26    27   ar
    10    27    28   ar
    11    28    29   ar
    12    29     1    1
    13     1     2   ar
    14     2     3   ar
    15     3     4   ar
    16     7     4    1
    17     7     8    1
    18     8     9    1
    19     9    10    1
    20    10    11    1
    21    11    12    1
    22    12    13    1
    23    12    16    1
    24    16    17   ar
    25    17    18   ar
    26    18    19   ar
    27    19    20    1
    28    19    21   ar
    29    21    22    1
    30    21    23   ar
    31     4     5   ar
    32     5     6    1
    33    29    24   ar
    34     5     1   ar
    35    12     7    1
    36    23    16   ar
    37    35    36    1
    38     9    14    1
    39    13    15    1
@<TRIPOS>MOLECULE
*****
 36 39 0 0 0
SMALL
GASTEIGER

@<TRIPOS>ATOM
      1 C          61.6831   94.7439   -1.1145 C.ar    1  UNL1        0.1823
      2 O          60.5801   95.7052   -0.7840 O.2     1  UNL1       -0.3532
      3 N          59.5905   95.6804   -1.9109 N.ar    1  UNL1       -0.0807
      4 C          60.0819   94.7037   -2.9380 C.ar    1  UNL1        0.1103
      5 C          61.3752   94.1250   -2.4458 C.ar    1  UNL1        0.0884
      6 BR         62.2134   93.1062   -3.1595 Br      1  UNL1       -0.0444
      7 C          59.3997   94.3653   -4.2303 C.3     1  UNL1        0.0883
      8 C          59.9266   94.9148   -5.5228 C.3     1  UNL1        0.0773
      9 N          59.2444   94.5764   -6.8151 N.3     1  UNL1       -0.2970
     10 C          58.0353   93.6886   -6.8149 C.3     1  UNL1        0.0714
     11 C          57.5084   93.1391   -5.5224 C.3     1  UNL1        0.0486
     12 C          58.1906   93.4775   -4.2301 C.3     1  UNL1        0.1149
     13 O          57.0852   92.6016   -3.7195 O.3     1  UNL1       -0.3822
     14 H          59.9416   94.1242   -7.4065 H       1  UNL1        0.1233
     15 H          56.5434   92.2975   -4.4644 H       1  UNL1        0.2107
     16 C          58.4889   93.5118   -2.7604 C.ar    1  UNL1        0.0045
     17 C          57.9222   94.6060   -1.9054 C.ar    1  UNL1        0.0004
     18 C          58.2205   94.6402   -0.4357 C.ar    1  UNL1        0.0317
     19 C          59.0857   93.5800    0.1788 C.ar    1  UNL1        0.1674
     20 F          59.3840   93.6143    1.6484 F       1  UNL1       -0.2018
     21 C          59.6524   92.4857   -0.6763 C.ar    1  UNL1        0.1671
     22 F          60.5175   91.4256   -0.0618 F       1  UNL1       -0.2018
     23 C          59.3541   92.4516   -2.1459 C.ar    1  UNL1        0.0299
     24 C          64.1808   95.1566   -0.5300 C.ar    1  UNL1       -0.0174
     25 C          65.3810   94.8653    0.3212 C.ar    1  UNL1       -0.0041
     26 C          65.2838   93.8699    1.4391 C.ar    1  UNL1       -0.0003
     27 C          63.9865   93.1659    1.7059 C.ar    1  UNL1        0.0001
     28 C          62.7863   93.4572    0.8547 C.ar    1  UNL1        0.0028
     29 C          62.8834   94.4526   -0.2633 C.ar    1  UNL1        0.0338
     30 C          64.2779   96.1519   -1.6480 C.3     1  UNL1        0.0477
     31 C          64.9303   95.7650   -2.9421 C.3     1  UNL1        0.0941
     32 C          63.7015   95.4671   -6.7039 C.3     1  UNL1        0.0946
     33 C          64.3685   95.1406   -5.4006 C.2     1  UNL1        0.2230
     34 O          65.1406   93.8632   -5.2526 O.2     1  UNL1       -0.2751
     35 N          64.2633   96.0916   -4.2453 N.am    1  UNL1       -0.3040
     36 H          63.7566   96.9300   -4.3425 H       1  UNL1        0.1494
@<TRIPOS>BOND
     1    32    33    1
     2    33    34    2
     3    33    35   am
     4    35    31    1
     5    31    30    1
     6    30    24    1
     7    24    25   ar
     8    25    26   ar
     9    26    27   ar
    10    27    28   ar
    11    28    29   ar
    12    29     1    1
    13     1     2   ar
    14     2     3   ar
    15     3     4   ar
    16     7     4    1
    17     7     8    1
    18     8     9    1
    19     9    10    1
    20    10    11    1
    21    11    12    1
    22    12    13    1
    23    12    16    1
    24    16    17   ar
    25    17    18   ar
    26    18    19   ar
    27    19    20    1
    28    19    21   ar
    29    21    22    1
    30    21    23   ar
    31     4     5   ar
    32     5     6    1
    33    29    24   ar
    34     5     1   ar
    35    12     7    1
    36    23    16   ar
    37    35    36    1
    38     9    14    1
    39    13    15    1
@<TRIPOS>MOLECULE
*****
 36 39 0 0 0
SMALL
GASTEIGER

@<TRIPOS>ATOM
      1 C          60.7648   95.1291   -1.8214 C.ar    1  UNL1        0.1823
      2 O          60.5183   95.0481   -0.3441 O.2     1  UNL1       -0.3532
      3 N          59.0386   95.1380   -0.1154 N.ar    1  UNL1       -0.0807
      4 C          58.3705   95.2746   -1.4515 C.ar    1  UNL1        0.1103
      5 C          59.4373   95.2690   -2.5058 C.ar    1  UNL1        0.0884
      6 BR         59.2157   95.3834   -3.9850 Br      1  UNL1       -0.0444
      7 C          56.8947   95.3954   -1.6910 C.3     1  UNL1        0.0883
      8 C          56.2931   96.7329   -2.0061 C.3     1  UNL1        0.0773
      9 N          54.8173   96.8538   -2.2457 N.3     1  UNL1       -0.2970
     10 C          53.9431   95.6372   -2.1702 C.3     1  UNL1        0.0714
     11 C          54.5447   94.2997   -1.8551 C.3     1  UNL1        0.0486
     12 C          56.0205   94.1788   -1.6155 C.3     1  UNL1        0.1149
     13 O          55.6092   92.7477   -1.4351 O.3     1  UNL1       -0.3822
     14 H          54.7018   97.2417   -3.1819 H       1  UNL1        0.1233
     15 H          54.6512   92.6679   -1.5639 H       1  UNL1        0.2107
     16 C          57.3535   93.5610   -1.3133 C.ar    1  UNL1        0.0045
     17 C          58.1937   93.0085   -2.4262 C.ar    1  UNL1        0.0004
     18 C          59.5268   92.3906   -2.1239 C.ar    1  UNL1        0.0317
     19 C          60.0195   92.3253   -0.7086 C.ar    1  UNL1        0.1674
     20 F          61.3525   91.7074   -0.4063 F       1  UNL1       -0.2018
     21 C          59.1792   92.8778    0.4044 C.ar    1  UNL1        0.1671
     22 F          59.6719   92.8124    1.8196 F       1  UNL1       -0.2018
     23 C          57.8462   93.4956    0.1020 C.ar    1  UNL1        0.0299
     24 C          63.2376   95.9111   -1.9751 C.ar    1  UNL1       -0.0174
     25 C          64.5764   95.8609   -2.6497 C.ar    1  UNL1       -0.0041
     26 C          64.7811   94.9785   -3.8453 C.ar    1  UNL1       -0.0003
     27 C          63.6472   94.1463   -4.3662 C.ar    1  UNL1        0.0001
     28 C          62.3084   94.1965   -3.6916 C.ar    1  UNL1        0.0028
     29 C          62.1036   95.0789   -2.4961 C.ar    1  UNL1        0.0338
     30 C          63.0328   96.7935   -0.7795 C.3     1  UNL1        0.0477
     31 C          63.7147   96.4702    0.5168 C.3     1  UNL1        0.0941
     32 C          63.0300   92.9235    2.1607 C.3     1  UNL1        0.0946
     33 C          63.5926   93.9841    1.2614 C.2     1  UNL1        0.2230
     34 O          64.5956   93.6192    0.2075 O.2     1  UNL1       -0.2751
     35 N          63.1521   95.4097    1.4161 N.am    1  UNL1       -0.3040
     36 H          62.4938   95.6492    2.1078 H       1  UNL1        0.1494
@<TRIPOS>BOND
     1    32    33    1
     2    33    34    2
     3    33    35   am
     4    35    31    1
     5    31    30    1
     6    30    24    1
     7    24    25   ar
     8    25    26   ar
     9    26    27   ar
    10    27    28   ar
    11    28    29   ar
    12    29     1    1
    13     1     2   ar
    14     2     3   ar
    15     3     4   ar
    16     7     4    1
    17     7     8    1
    18     8     9    1
    19     9    10    1
    20    10    11    1
    21    11    12    1
    22    12    13    1
    23    12    16    1
    24    16    17   ar
    25    17    18   ar
    26    18    19   ar
    27    19    20    1
    28    19    21   ar
    29    21    22    1
    30    21    23   ar
    31     4     5   ar
    32     5     6    1
    33    29    24   ar
    34     5     1   ar
    35    12     7    1
    36    23    16   ar
    37    35    36    1
    38     9    14    1
    39    13    15    1
@<TRIPOS>MOLECULE
*****
 36 39 0 0 0
SMALL
GASTEIGER

@<TRIPOS>ATOM
      1 C          61.1173   95.7002   -0.9371 C.ar    1  UNL1        0.1823
      2 O          60.7369   95.2667    0.4476 O.2     1  UNL1       -0.3532
      3 N          59.2424   95.1508    0.5028 N.ar    1  UNL1       -0.0807
      4 C          58.6992   95.5127   -0.8478 C.ar    1  UNL1        0.1103
      5 C          59.8580   95.8522   -1.7377 C.ar    1  UNL1        0.0884
      6 BR         59.7724   96.2704   -3.1756 Br      1  UNL1       -0.0444
      7 C          57.2514   95.5316   -1.2397 C.3     1  UNL1        0.0883
      8 C          56.5020   96.8304   -1.2790 C.3     1  UNL1        0.0773
      9 N          55.0543   96.8494   -1.6709 N.3     1  UNL1       -0.2970
     10 C          54.3559   95.5696   -2.0235 C.3     1  UNL1        0.0714
     11 C          55.1052   94.2708   -1.9842 C.3     1  UNL1        0.0486
     12 C          56.5530   94.2518   -1.5923 C.3     1  UNL1        0.1149
     13 O          56.3306   92.7890   -1.8385 O.3     1  UNL1       -0.3822
     14 H          54.9773   97.4605   -2.4839 H       1  UNL1        0.1233
     15 H          55.4103   92.6426   -2.1077 H       1  UNL1        0.2107
     16 C          57.9236   93.7248   -1.2859 C.ar    1  UNL1        0.0045
     17 C          58.2586   93.2691    0.1033 C.ar    1  UNL1        0.0004
     18 C          59.6293   92.7421    0.4097 C.ar    1  UNL1        0.0317
     19 C          60.6648   92.6709   -0.6733 C.ar    1  UNL1        0.1674
     20 F          62.0353   92.1440   -0.3668 F       1  UNL1       -0.2018
     21 C          60.3297   93.1267   -2.0625 C.ar    1  UNL1        0.1671
     22 F          61.3652   93.0556   -3.1453 F       1  UNL1       -0.2018
     23 C          58.9591   93.6537   -2.3688 C.ar    1  UNL1        0.0299
     24 C          63.6872   95.5051   -0.6090 C.ar    1  UNL1       -0.0174
     25 C          65.0821   95.7446   -1.1059 C.ar    1  UNL1       -0.0041
     26 C          65.3020   96.4187   -2.4277 C.ar    1  UNL1       -0.0003
     27 C          64.1271   96.8534   -3.2526 C.ar    1  UNL1        0.0001
     28 C          62.7322   96.6139   -2.7557 C.ar    1  UNL1        0.0028
     29 C          62.5123   95.9397   -1.4339 C.ar    1  UNL1        0.0338
     30 C          63.4673   94.8309    0.7128 C.3     1  UNL1        0.0477
     31 C          64.6389   94.3228    1.4997 C.3     1  UNL1        0.0941
     32 C          63.4195   90.8920    3.0784 C.3     1  UNL1        0.0946
     33 C          63.4070   92.3070    2.5809 C.2     1  UNL1        0.2230
     34 O          62.1503   93.1213    2.6673 O.2     1  UNL1       -0.2751
     35 N          64.6514   92.9078    1.9971 N.am    1  UNL1       -0.3040
     36 H          65.4762   92.3733    1.9404 H       1  UNL1        0.1494
@<TRIPOS>BOND
     1    32    33    1
     2    33    34    2
     3    33    35   am
     4    35    31    1
     5    31    30    1
     6    30    24    1
     7    24    25   ar
     8    25    26   ar
     9    26    27   ar
    10    27    28   ar
    11    28    29   ar
    12    29     1    1
    13     1     2   ar
    14     2     3   ar
    15     3     4   ar
    16     7     4    1
    17     7     8    1
    18     8     9    1
    19     9    10    1
    20    10    11    1
    21    11    12    1
    22    12    13    1
    23    12    16    1
    24    16    17   ar
    25    17    18   ar
    26    18    19   ar
    27    19    20    1
    28    19    21   ar
    29    21    22    1
    30    21    23   ar
    31     4     5   ar
    32     5     6    1
    33    29    24   ar
    34     5     1   ar
    35    12     7    1
    36    23    16   ar
    37    35    36    1
    38     9    14    1
    39    13    15    1
