@<TRIPOS>MOLECULE
*****
 22 24 0 0 0
SMALL
GASTEIGER

@<TRIPOS>ATOM
      1 C          62.8421   85.0965   11.2332 C.ar    1  UNL1        0.0427
      2 C          63.0141   84.6173    9.8222 C.ar    1  UNL1        0.0077
      3 C          63.8829   83.4289    9.5344 C.ar    1  UNL1        0.0006
      4 C          64.5798   82.7197   10.6575 C.ar    1  UNL1        0.0013
      5 C          64.4078   83.1989   12.0685 C.ar    1  UNL1        0.0150
      6 C          63.5390   84.3873   12.3563 C.ar    1  UNL1        0.0540
      7 N          63.3670   84.8665   13.7673 N.pl3   1  UNL1       -0.3043
      8 C          62.3700   84.2011   14.6691 C.3     1  UNL1        0.1079
      9 C          62.1980   84.6803   16.0800 C.3     1  UNL1        0.0903
     10 N          63.0230   85.8248   16.5892 N.3     1  UNL1       -0.2946
     11 C          64.0201   86.4903   15.6874 C.3     1  UNL1        0.0903
     12 C          64.1921   86.0111   14.2764 C.3     1  UNL1        0.1079
     13 H          63.5415   85.4780   17.3962 H       1  UNL1        0.1233
     14 S          61.9733   86.2849   11.5210 S.3     1  UNL1       -0.0860
     15 C          59.3371   89.2365    7.0111 C.3     1  UNL1        0.0310
     16 C          59.9961   88.4985    8.1386 C.ar    1  UNL1       -0.0221
     17 C          59.7902   87.0205    8.2894 C.ar    1  UNL1       -0.0038
     18 C          60.4492   86.2825    9.4169 C.ar    1  UNL1        0.0058
     19 C          61.3142   87.0227   10.3936 C.ar    1  UNL1        0.0255
     20 C          61.5202   88.5009   10.2427 C.ar    1  UNL1       -0.0162
     21 C          62.3852   89.2411   11.2193 C.3     1  UNL1        0.0315
     22 C          60.8612   89.2388    9.1152 C.ar    1  UNL1       -0.0080
@<TRIPOS>BOND
     1    15    16    1
     2    16    17   ar
     3    17    18   ar
     4    18    19   ar
     5    19    14    1
     6    14     1    1
     7     1     2   ar
     8     2     3   ar
     9     3     4   ar
    10     4     5   ar
    11     5     6   ar
    12     6     7    1
    13     7     8    1
    14     8     9    1
    15     9    10    1
    16    10    11    1
    17    11    12    1
    18    19    20   ar
    19    20    21    1
    20    20    22   ar
    21    22    16   ar
    22     6     1   ar
    23    12     7    1
    24    10    13    1
@<TRIPOS>MOLECULE
*****
 22 24 0 0 0
SMALL
GASTEIGER

@<TRIPOS>ATOM
      1 C          62.7595   84.9176   11.3343 C.ar    1  UNL1        0.0427
      2 C          62.9422   84.4068    9.9358 C.ar    1  UNL1        0.0077
      3 C          63.9056   83.2893    9.6653 C.ar    1  UNL1        0.0006
      4 C          64.6863   82.6826   10.7933 C.ar    1  UNL1        0.0013
      5 C          64.5036   83.1934   12.1918 C.ar    1  UNL1        0.0150
      6 C          63.5403   84.3108   12.4623 C.ar    1  UNL1        0.0540
      7 N          63.3576   84.8215   13.8608 N.pl3   1  UNL1       -0.3043
      8 C          64.2185   85.9396   14.3694 C.3     1  UNL1        0.1079
      9 C          64.0358   86.4503   15.7679 C.3     1  UNL1        0.0903
     10 N          62.9922   85.8430   16.6578 N.3     1  UNL1       -0.2946
     11 C          62.1312   84.7248   16.1492 C.3     1  UNL1        0.0903
     12 C          62.3139   84.2141   14.7507 C.3     1  UNL1        0.1079
     13 H          62.3632   86.5978   16.9316 H       1  UNL1        0.1233
     14 S          61.7961   86.0350   11.6048 S.3     1  UNL1       -0.0860
     15 C          63.2847   91.6803   10.2207 C.3     1  UNL1        0.0310
     16 C          62.9126   90.2689   10.5668 C.ar    1  UNL1       -0.0221
     17 C          63.3737   89.6676   11.8613 C.ar    1  UNL1       -0.0038
     18 C          63.0015   88.2562   12.2073 C.ar    1  UNL1        0.0058
     19 C          62.1683   87.4463   11.2588 C.ar    1  UNL1        0.0255
     20 C          61.7072   88.0477    9.9643 C.ar    1  UNL1       -0.0162
     21 C          60.8739   87.2377    9.0158 C.3     1  UNL1        0.0315
     22 C          62.0793   89.4589    9.6183 C.ar    1  UNL1       -0.0080
@<TRIPOS>BOND
     1    15    16    1
     2    16    17   ar
     3    17    18   ar
     4    18    19   ar
     5    19    14    1
     6    14     1    1
     7     1     2   ar
     8     2     3   ar
     9     3     4   ar
    10     4     5   ar
    11     5     6   ar
    12     6     7    1
    13     7     8    1
    14     8     9    1
    15     9    10    1
    16    10    11    1
    17    11    12    1
    18    19    20   ar
    19    20    21    1
    20    20    22   ar
    21    22    16   ar
    22     6     1   ar
    23    12     7    1
    24    10    13    1
@<TRIPOS>MOLECULE
*****
 22 24 0 0 0
SMALL
GASTEIGER

@<TRIPOS>ATOM
      1 C          63.0670   86.3041   12.5137 C.ar    1  UNL1        0.0427
      2 C          63.2464   87.7914   12.4367 C.ar    1  UNL1        0.0077
      3 C          63.9474   88.5206   13.5444 C.ar    1  UNL1        0.0006
      4 C          64.4690   87.7626   14.7290 C.ar    1  UNL1        0.0013
      5 C          64.2896   86.2754   14.8060 C.ar    1  UNL1        0.0150
      6 C          63.5887   85.5461   13.6984 C.ar    1  UNL1        0.0540
      7 N          63.4093   84.0589   13.7754 N.pl3   1  UNL1       -0.3043
      8 C          62.2621   83.4809   14.5498 C.3     1  UNL1        0.1079
      9 C          62.0827   81.9937   14.6268 C.3     1  UNL1        0.0903
     10 N          63.0506   81.0844   13.9295 N.3     1  UNL1       -0.2946
     11 C          64.1979   81.6624   13.1550 C.3     1  UNL1        0.0903
     12 C          64.3773   83.1496   13.0780 C.3     1  UNL1        0.1079
     13 H          62.5069   80.5221   13.2747 H       1  UNL1        0.1233
     14 S          62.3661   85.5749   11.4061 S.3     1  UNL1       -0.0860
     15 C          59.1844   88.6348    7.3423 C.3     1  UNL1        0.0310
     16 C          59.9799   87.8698    8.3583 C.ar    1  UNL1       -0.0221
     17 C          59.7154   88.0675    9.8215 C.ar    1  UNL1       -0.0038
     18 C          60.5109   87.3025   10.8375 C.ar    1  UNL1        0.0058
     19 C          61.5707   86.3399   10.3902 C.ar    1  UNL1        0.0255
     20 C          61.8351   86.1422    8.9269 C.ar    1  UNL1       -0.0162
     21 C          62.8949   85.1795    8.4797 C.3     1  UNL1        0.0315
     22 C          61.0397   86.9071    7.9110 C.ar    1  UNL1       -0.0080
@<TRIPOS>BOND
     1    15    16    1
     2    16    17   ar
     3    17    18   ar
     4    18    19   ar
     5    19    14    1
     6    14     1    1
     7     1     2   ar
     8     2     3   ar
     9     3     4   ar
    10     4     5   ar
    11     5     6   ar
    12     6     7    1
    13     7     8    1
    14     8     9    1
    15     9    10    1
    16    10    11    1
    17    11    12    1
    18    19    20   ar
    19    20    21    1
    20    20    22   ar
    21    22    16   ar
    22     6     1   ar
    23    12     7    1
    24    10    13    1
@<TRIPOS>MOLECULE
*****
 22 24 0 0 0
SMALL
GASTEIGER

@<TRIPOS>ATOM
      1 C          63.7803   86.9157   15.2647 C.ar    1  UNL1        0.0427
      2 C          63.4589   85.8736   16.2946 C.ar    1  UNL1        0.0077
      3 C          62.9567   86.2852   17.6468 C.ar    1  UNL1        0.0006
      4 C          62.7760   87.7390   17.9691 C.ar    1  UNL1        0.0013
      5 C          63.0974   88.7811   16.9392 C.ar    1  UNL1        0.0150
      6 C          63.5996   88.3695   15.5871 C.ar    1  UNL1        0.0540
      7 N          63.9210   89.4117   14.5572 N.pl3   1  UNL1       -0.3043
      8 C          63.0346   89.5805   13.3590 C.3     1  UNL1        0.1079
      9 C          63.3561   90.6226   12.3291 C.3     1  UNL1        0.0903
     10 N          64.5639   91.4960   12.4975 N.3     1  UNL1       -0.2946
     11 C          65.4503   91.3272   13.6958 C.3     1  UNL1        0.0903
     12 C          65.1289   90.2850   14.7256 C.3     1  UNL1        0.1079
     13 H          64.2306   92.4599   12.5112 H       1  UNL1        0.1233
     14 S          64.2825   86.5041   13.9125 S.3     1  UNL1       -0.0860
     15 C          62.8428   81.1205   11.6888 C.3     1  UNL1        0.0310
     16 C          63.2028   82.4664   12.2448 C.ar    1  UNL1       -0.0221
     17 C          64.1627   82.5715   13.3925 C.ar    1  UNL1       -0.0038
     18 C          64.5226   83.9174   13.9485 C.ar    1  UNL1        0.0058
     19 C          63.9226   85.1582   13.3566 C.ar    1  UNL1        0.0255
     20 C          62.9626   85.0531   12.2088 C.ar    1  UNL1       -0.0162
     21 C          62.3625   86.2939   11.6169 C.3     1  UNL1        0.0315
     22 C          62.6027   83.7073   11.6529 C.ar    1  UNL1       -0.0080
@<TRIPOS>BOND
     1    15    16    1
     2    16    17   ar
     3    17    18   ar
     4    18    19   ar
     5    19    14    1
     6    14     1    1
     7     1     2   ar
     8     2     3   ar
     9     3     4   ar
    10     4     5   ar
    11     5     6   ar
    12     6     7    1
    13     7     8    1
    14     8     9    1
    15     9    10    1
    16    10    11    1
    17    11    12    1
    18    19    20   ar
    19    20    21    1
    20    20    22   ar
    21    22    16   ar
    22     6     1   ar
    23    12     7    1
    24    10    13    1
@<TRIPOS>MOLECULE
*****
 22 24 0 0 0
SMALL
GASTEIGER

@<TRIPOS>ATOM
      1 C          62.3211   86.4284   11.3618 C.ar    1  UNL1        0.0427
      2 C          61.5485   85.6390   10.3469 C.ar    1  UNL1        0.0077
      3 C          60.8238   86.3461    9.2401 C.ar    1  UNL1        0.0006
      4 C          60.8717   87.8425    9.1483 C.ar    1  UNL1        0.0013
      5 C          61.6443   88.6319   10.1632 C.ar    1  UNL1        0.0150
      6 C          62.3690   87.9248   11.2699 C.ar    1  UNL1        0.0540
      7 N          63.1415   88.7142   12.2848 N.pl3   1  UNL1       -0.3043
      8 C          63.3501   90.1866   12.0893 C.3     1  UNL1        0.1079
      9 C          64.1227   90.9760   13.1042 C.3     1  UNL1        0.0903
     10 N          64.6867   90.2929   14.3147 N.3     1  UNL1       -0.2946
     11 C          64.4781   88.8203   14.5102 C.3     1  UNL1        0.0903
     12 C          63.7056   88.0310   13.4953 C.3     1  UNL1        0.1079
     13 H          64.2853   90.7578   15.1290 H       1  UNL1        0.1233
     14 S          63.0458   85.7213   12.4685 S.3     1  UNL1       -0.0860
     15 C          62.3517   79.8080   13.2111 C.3     1  UNL1        0.0310
     16 C          62.5253   81.2864   13.0254 C.ar    1  UNL1       -0.0221
     17 C          62.9265   81.8322   11.6872 C.ar    1  UNL1       -0.0038
     18 C          63.1000   83.3105   11.5015 C.ar    1  UNL1        0.0058
     19 C          62.8723   84.2430   12.6541 C.ar    1  UNL1        0.0255
     20 C          62.4710   83.6971   13.9925 C.ar    1  UNL1       -0.0162
     21 C          62.2433   84.6296   15.1451 C.3     1  UNL1        0.0315
     22 C          62.2975   82.2189   14.1781 C.ar    1  UNL1       -0.0080
@<TRIPOS>BOND
     1    15    16    1
     2    16    17   ar
     3    17    18   ar
     4    18    19   ar
     5    19    14    1
     6    14     1    1
     7     1     2   ar
     8     2     3   ar
     9     3     4   ar
    10     4     5   ar
    11     5     6   ar
    12     6     7    1
    13     7     8    1
    14     8     9    1
    15     9    10    1
    16    10    11    1
    17    11    12    1
    18    19    20   ar
    19    20    21    1
    20    20    22   ar
    21    22    16   ar
    22     6     1   ar
    23    12     7    1
    24    10    13    1
@<TRIPOS>MOLECULE
*****
 22 24 0 0 0
SMALL
GASTEIGER

@<TRIPOS>ATOM
      1 C          62.9395   85.9391   12.4140 C.ar    1  UNL1        0.0427
      2 C          63.0284   84.4437   12.4910 C.ar    1  UNL1        0.0077
      3 C          63.9013   83.7965   13.5251 C.ar    1  UNL1        0.0006
      4 C          64.6852   84.6447   14.4822 C.ar    1  UNL1        0.0013
      5 C          64.5963   86.1401   14.4052 C.ar    1  UNL1        0.0150
      6 C          63.7235   86.7873   13.3711 C.ar    1  UNL1        0.0540
      7 N          63.6346   88.2826   13.2941 N.pl3   1  UNL1       -0.3043
      8 C          64.1566   89.1240   14.4208 C.3     1  UNL1        0.1079
      9 C          64.0677   90.6194   14.3438 C.3     1  UNL1        0.0903
     10 N          63.4569   91.2734   13.1401 N.3     1  UNL1       -0.2946
     11 C          62.9348   90.4320   12.0133 C.3     1  UNL1        0.0903
     12 C          63.0237   88.9366   12.0903 C.3     1  UNL1        0.1079
     13 H          64.1698   91.8861   12.7443 H       1  UNL1        0.1233
     14 S          62.0668   86.5862   11.3799 S.3     1  UNL1       -0.0860
     15 C          61.9449   84.4304    5.7818 C.3     1  UNL1        0.0310
     16 C          61.9754   84.9694    7.1814 C.ar    1  UNL1       -0.0221
     17 C          63.0520   84.5325    8.1300 C.ar    1  UNL1       -0.0038
     18 C          63.0825   85.0715    9.5296 C.ar    1  UNL1        0.0058
     19 C          62.0363   86.0473    9.9804 C.ar    1  UNL1        0.0255
     20 C          60.9596   86.4842    9.0317 C.ar    1  UNL1       -0.0162
     21 C          59.9135   87.4600    9.4825 C.3     1  UNL1        0.0315
     22 C          60.9292   85.9452    7.6322 C.ar    1  UNL1       -0.0080
@<TRIPOS>BOND
     1    15    16    1
     2    16    17   ar
     3    17    18   ar
     4    18    19   ar
     5    19    14    1
     6    14     1    1
     7     1     2   ar
     8     2     3   ar
     9     3     4   ar
    10     4     5   ar
    11     5     6   ar
    12     6     7    1
    13     7     8    1
    14     8     9    1
    15     9    10    1
    16    10    11    1
    17    11    12    1
    18    19    20   ar
    19    20    21    1
    20    20    22   ar
    21    22    16   ar
    22     6     1   ar
    23    12     7    1
    24    10    13    1
@<TRIPOS>MOLECULE
*****
 22 24 0 0 0
SMALL
GASTEIGER

@<TRIPOS>ATOM
      1 C          62.1527   87.5040   11.2853 C.ar    1  UNL1        0.0427
      2 C          63.1296   87.7614   12.3942 C.ar    1  UNL1        0.0077
      3 C          63.5878   89.1608   12.6803 C.ar    1  UNL1        0.0006
      4 C          63.0691   90.3027   11.8576 C.ar    1  UNL1        0.0013
      5 C          62.0922   90.0453   10.7487 C.ar    1  UNL1        0.0150
      6 C          61.6340   88.6460   10.4626 C.ar    1  UNL1        0.0540
      7 N          60.6571   88.3887    9.3538 N.pl3   1  UNL1       -0.3043
      8 C          60.0532   87.0257    9.1876 C.3     1  UNL1        0.1079
      9 C          59.0763   86.7684    8.0788 C.3     1  UNL1        0.0903
     10 N          58.7034   87.8739    7.1362 N.3     1  UNL1       -0.2946
     11 C          59.3074   89.2369    7.3023 C.3     1  UNL1        0.0903
     12 C          60.2842   89.4943    8.4111 C.3     1  UNL1        0.1079
     13 H          57.6922   87.9897    7.2035 H       1  UNL1        0.1233
     14 S          61.6945   86.1047   10.9992 S.3     1  UNL1       -0.0860
     15 C          64.6862   81.4393   13.2981 C.3     1  UNL1        0.0310
     16 C          63.9383   82.6057   12.7234 C.ar    1  UNL1       -0.0221
     17 C          63.0811   83.4582   13.6114 C.ar    1  UNL1       -0.0038
     18 C          62.3332   84.6245   13.0367 C.ar    1  UNL1        0.0058
     19 C          62.4424   84.9384   11.5739 C.ar    1  UNL1        0.0255
     20 C          63.2996   84.0858   10.6859 C.ar    1  UNL1       -0.0162
     21 C          63.4088   84.3997    9.2232 C.3     1  UNL1        0.0315
     22 C          64.0475   82.9196   11.2606 C.ar    1  UNL1       -0.0080
@<TRIPOS>BOND
     1    15    16    1
     2    16    17   ar
     3    17    18   ar
     4    18    19   ar
     5    19    14    1
     6    14     1    1
     7     1     2   ar
     8     2     3   ar
     9     3     4   ar
    10     4     5   ar
    11     5     6   ar
    12     6     7    1
    13     7     8    1
    14     8     9    1
    15     9    10    1
    16    10    11    1
    17    11    12    1
    18    19    20   ar
    19    20    21    1
    20    20    22   ar
    21    22    16   ar
    22     6     1   ar
    23    12     7    1
    24    10    13    1
@<TRIPOS>MOLECULE
*****
 22 24 0 0 0
SMALL
GASTEIGER

@<TRIPOS>ATOM
      1 C          62.5024   85.7205   10.6955 C.ar    1  UNL1        0.0427
      2 C          62.4237   86.0765    9.2405 C.ar    1  UNL1        0.0077
      3 C          63.0011   85.1520    8.2099 C.ar    1  UNL1        0.0006
      4 C          63.6571   83.8717    8.6343 C.ar    1  UNL1        0.0013
      5 C          63.7358   83.5157   10.0893 C.ar    1  UNL1        0.0150
      6 C          63.1585   84.4401   11.1199 C.ar    1  UNL1        0.0540
      7 N          63.2372   84.0841   12.5749 N.pl3   1  UNL1       -0.3043
      8 C          62.2540   83.1170   13.1647 C.3     1  UNL1        0.1079
      9 C          62.3327   82.7610   14.6197 C.3     1  UNL1        0.0903
     10 N          63.3946   83.3722   15.4850 N.3     1  UNL1       -0.2946
     11 C          64.3779   84.3393   14.8952 C.3     1  UNL1        0.0903
     12 C          64.2992   84.6953   13.4402 C.3     1  UNL1        0.1079
     13 H          63.9373   82.6011   15.8741 H       1  UNL1        0.1233
     14 S          61.9251   86.6449   11.7261 S.3     1  UNL1       -0.0860
     15 C          64.5865   91.8993   12.8702 C.3     1  UNL1        0.0310
     16 C          63.9211   90.5857   12.5842 C.ar    1  UNL1       -0.0221
     17 C          64.2211   89.3909   13.4400 C.ar    1  UNL1       -0.0038
     18 C          63.5558   88.0773   13.1540 C.ar    1  UNL1        0.0058
     19 C          62.5904   87.9585   12.0121 C.ar    1  UNL1        0.0255
     20 C          62.2904   89.1533   11.1562 C.ar    1  UNL1       -0.0162
     21 C          61.3250   89.0345   10.0143 C.3     1  UNL1        0.0315
     22 C          62.9558   90.4668   11.4423 C.ar    1  UNL1       -0.0080
@<TRIPOS>BOND
     1    15    16    1
     2    16    17   ar
     3    17    18   ar
     4    18    19   ar
     5    19    14    1
     6    14     1    1
     7     1     2   ar
     8     2     3   ar
     9     3     4   ar
    10     4     5   ar
    11     5     6   ar
    12     6     7    1
    13     7     8    1
    14     8     9    1
    15     9    10    1
    16    10    11    1
    17    11    12    1
    18    19    20   ar
    19    20    21    1
    20    20    22   ar
    21    22    16   ar
    22     6     1   ar
    23    12     7    1
    24    10    13    1
@<TRIPOS>MOLECULE
*****
 22 24 0 0 0
SMALL
GASTEIGER

@<TRIPOS>ATOM
      1 C          62.6449   85.9987   10.9736 C.ar    1  UNL1        0.0427
      2 C          62.4594   86.5054    9.5740 C.ar    1  UNL1        0.0077
      3 C          62.7624   85.6130    8.4069 C.ar    1  UNL1        0.0006
      4 C          63.2507   84.2140    8.6395 C.ar    1  UNL1        0.0013
      5 C          63.4362   83.7072   10.0391 C.ar    1  UNL1        0.0150
      6 C          63.1333   84.5995   11.2061 C.ar    1  UNL1        0.0540
      7 N          63.3188   84.0928   12.6057 N.pl3   1  UNL1       -0.3043
      8 C          64.5645   84.4345   13.3681 C.3     1  UNL1        0.1079
      9 C          64.7499   83.9278   14.7677 C.3     1  UNL1        0.0903
     10 N          63.6897   83.0793   15.4048 N.3     1  UNL1       -0.2946
     11 C          62.4439   82.7376   14.6423 C.3     1  UNL1        0.0903
     12 C          62.2584   83.2443   13.2428 C.3     1  UNL1        0.1079
     13 H          63.3929   83.5652   16.2512 H       1  UNL1        0.1233
     14 S          62.3420   86.8910   12.1406 S.3     1  UNL1       -0.0860
     15 C          64.7619   92.3737   12.4324 C.3     1  UNL1        0.0310
     16 C          64.1569   91.0030   12.3594 C.ar    1  UNL1       -0.0221
     17 C          63.2655   90.6368   11.2099 C.ar    1  UNL1       -0.0038
     18 C          62.6605   89.2661   11.1370 C.ar    1  UNL1        0.0058
     19 C          62.9469   88.2616   12.2135 C.ar    1  UNL1        0.0255
     20 C          63.8384   88.6278   13.3630 C.ar    1  UNL1       -0.0162
     21 C          64.1248   87.6233   14.4396 C.3     1  UNL1        0.0315
     22 C          64.4433   89.9985   13.4360 C.ar    1  UNL1       -0.0080
@<TRIPOS>BOND
     1    15    16    1
     2    16    17   ar
     3    17    18   ar
     4    18    19   ar
     5    19    14    1
     6    14     1    1
     7     1     2   ar
     8     2     3   ar
     9     3     4   ar
    10     4     5   ar
    11     5     6   ar
    12     6     7    1
    13     7     8    1
    14     8     9    1
    15     9    10    1
    16    10    11    1
    17    11    12    1
    18    19    20   ar
    19    20    21    1
    20    20    22   ar
    21    22    16   ar
    22     6     1   ar
    23    12     7    1
    24    10    13    1
