@<TRIPOS>MOLECULE
*****
 32 35 0 0 0
SMALL
GASTEIGER

@<TRIPOS>ATOM
      1 C          61.4778   88.2067   11.0516 C.ar    1  UNL1        0.1389
      2 C          62.3076   89.3579   11.5374 C.ar    1  UNL1        0.0553
      3 C          63.4110   89.1226   12.5259 C.ar    1  UNL1        0.1048
      4 N          63.6846   87.7361   13.0286 N.ar    1  UNL1       -0.2083
      5 C          62.8548   86.5849   12.5428 C.ar    1  UNL1        0.2539
      6 N          61.7514   86.8202   11.5543 N.ar    1  UNL1       -0.1948
      7 N          63.1283   85.1983   13.0455 N.ar    1  UNL1       -0.2008
      8 N          62.7929   83.9207   12.3347 N.ar    1  UNL1       -0.1673
      9 C          63.2426   82.7787   13.1971 C.ar    1  UNL1        0.0806
     10 C          63.1034   81.3208   12.8727 C.3     1  UNL1        0.0540
     11 C          63.8558   83.3506   14.4409 C.ar    1  UNL1        0.0313
     12 C          63.7852   84.8460   14.3471 C.ar    1  UNL1        0.0651
     13 C          64.2839   85.8183   15.3747 C.3     1  UNL1        0.0523
     14 C          64.2409   90.2739   13.0117 C.ar    1  UNL1        0.1005
     15 C          64.5052   90.4415   14.4787 C.ar    1  UNL1        0.0208
     16 C          65.3350   91.5927   14.9645 C.ar    1  UNL1        0.0045
     17 C          65.9006   92.5764   13.9833 C.ar    1  UNL1        0.0343
     18 C          65.6363   92.4087   12.5163 C.ar    1  UNL1        0.1317
     19 N          64.8064   91.2575   12.0305 N.ar    1  UNL1       -0.2292
     20 N          66.2018   93.3923   11.5352 N.pl3   1  UNL1       -0.2931
     21 C          66.9055   92.9033   10.3040 C.3     1  UNL1        0.0946
     22 C          67.4710   93.8869    9.3228 C.3     1  UNL1        0.0507
     23 C          67.3329   95.3595    9.5728 C.3     1  UNL1        0.1139
     24 O          67.8984   96.3431    8.5916 O.3     1  UNL1       -0.3843
     25 C          66.6292   95.8485   10.8040 C.3     1  UNL1        0.0507
     26 C          66.0637   94.8649   11.7851 C.3     1  UNL1        0.0946
     27 H          67.7240   97.2455    8.9015 H       1  UNL1        0.2103
     28 C          59.2205   87.8823    7.8036 C.3     1  UNL1        0.0950
     29 C          60.3239   87.6470    8.7921 C.2     1  UNL1        0.2277
     30 O          61.3769   86.6167    8.5095 O.2     1  UNL1       -0.2747
     31 N          60.3744   88.4420   10.0631 N.am    1  UNL1       -0.2692
     32 H          59.6833   89.1182   10.2485 H       1  UNL1        0.1563
@<TRIPOS>BOND
     1    28    29    1
     2    29    30    2
     3    29    31   am
     4    31     1    1
     5     1     2   ar
     6     2     3   ar
     7     3    14    1
     8    14    15   ar
     9    15    16   ar
    10    16    17   ar
    11    17    18   ar
    12    18    20    1
    13    20    21    1
    14    21    22    1
    15    22    23    1
    16    23    24    1
    17    23    25    1
    18    25    26    1
    19    18    19   ar
    20     3     4   ar
    21     4     5   ar
    22     5     7    1
    23     7     8   ar
    24     8     9   ar
    25     9    10    1
    26     9    11   ar
    27    11    12   ar
    28    12    13    1
    29     5     6   ar
    30     6     1   ar
    31    19    14   ar
    32    12     7   ar
    33    26    20    1
    34    31    32    1
    35    24    27    1
@<TRIPOS>MOLECULE
*****
 32 35 0 0 0
SMALL
GASTEIGER

@<TRIPOS>ATOM
      1 C          63.7967   87.3699   13.9436 C.ar    1  UNL1        0.1389
      2 C          64.5157   88.6622   14.1946 C.ar    1  UNL1        0.0553
      3 C          64.3079   89.8273   13.2731 C.ar    1  UNL1        0.1048
      4 N          63.3813   89.7002   12.1005 N.ar    1  UNL1       -0.2083
      5 C          62.6623   88.4080   11.8494 C.ar    1  UNL1        0.2539
      6 N          62.8700   87.2428   12.7710 N.ar    1  UNL1       -0.1948
      7 N          61.7356   88.2808   10.6768 N.ar    1  UNL1       -0.2008
      8 N          61.6479   87.1083    9.7453 N.ar    1  UNL1       -0.1673
      9 C          60.5920   87.4066    8.7226 C.ar    1  UNL1        0.0806
     10 C          60.1744   86.5062    7.5980 C.3     1  UNL1        0.0540
     11 C          60.0270   88.7636    9.0220 C.ar    1  UNL1        0.0313
     12 C          60.7338   89.3038   10.2297 C.ar    1  UNL1        0.0651
     13 C          60.4827   90.6336   10.8768 C.3     1  UNL1        0.0523
     14 C          65.0270   91.1197   13.5242 C.ar    1  UNL1        0.1005
     15 C          65.3652   91.5294   14.9270 C.ar    1  UNL1        0.0208
     16 C          66.0842   92.8216   15.1781 C.ar    1  UNL1        0.0045
     17 C          66.4650   93.7042   14.0265 C.ar    1  UNL1        0.0343
     18 C          66.1267   93.2945   12.6238 C.ar    1  UNL1        0.1317
     19 N          65.4077   92.0021   12.3726 N.ar    1  UNL1       -0.2292
     20 N          66.5075   94.1770   11.4722 N.pl3   1  UNL1       -0.2931
     21 C          67.1404   93.5825   10.2491 C.3     1  UNL1        0.0946
     22 C          67.5212   94.4650    9.0974 C.3     1  UNL1        0.0507
     23 C          67.2690   95.9420    9.1689 C.3     1  UNL1        0.1139
     24 O          67.6497   96.8245    8.0173 O.3     1  UNL1       -0.3843
     25 C          66.6360   96.5364   10.3921 C.3     1  UNL1        0.0507
     26 C          66.2553   95.6539   11.5437 C.3     1  UNL1        0.0946
     27 H          67.4202   97.7438    8.2248 H       1  UNL1        0.2103
     28 C          64.2618   83.6459   15.2341 C.3     1  UNL1        0.0950
     29 C          64.0540   84.8111   14.3126 C.2     1  UNL1        0.2277
     30 O          63.8959   84.5826   12.8385 O.2     1  UNL1       -0.2747
     31 N          64.0045   86.2047   14.8651 N.am    1  UNL1       -0.2692
     32 H          64.1083   86.3547   15.8325 H       1  UNL1        0.1563
@<TRIPOS>BOND
     1    28    29    1
     2    29    30    2
     3    29    31   am
     4    31     1    1
     5     1     2   ar
     6     2     3   ar
     7     3    14    1
     8    14    15   ar
     9    15    16   ar
    10    16    17   ar
    11    17    18   ar
    12    18    20    1
    13    20    21    1
    14    21    22    1
    15    22    23    1
    16    23    24    1
    17    23    25    1
    18    25    26    1
    19    18    19   ar
    20     3     4   ar
    21     4     5   ar
    22     5     7    1
    23     7     8   ar
    24     8     9   ar
    25     9    10    1
    26     9    11   ar
    27    11    12   ar
    28    12    13    1
    29     5     6   ar
    30     6     1   ar
    31    19    14   ar
    32    12     7   ar
    33    26    20    1
    34    31    32    1
    35    24    27    1
@<TRIPOS>MOLECULE
*****
 32 35 0 0 0
SMALL
GASTEIGER

@<TRIPOS>ATOM
      1 C          62.0382   89.9595   10.6435 C.ar    1  UNL1        0.1389
      2 C          62.2655   88.7825   11.5452 C.ar    1  UNL1        0.0553
      3 C          63.3786   88.8117   12.5503 C.ar    1  UNL1        0.1048
      4 N          64.2643   90.0178   12.6538 N.ar    1  UNL1       -0.2083
      5 C          64.0369   91.1947   11.7521 C.ar    1  UNL1        0.2539
      6 N          62.9239   91.1656   10.7470 N.ar    1  UNL1       -0.1948
      7 N          64.9227   92.4010   11.8555 N.ar    1  UNL1       -0.2008
      8 N          65.1487   93.4235   10.7816 N.ar    1  UNL1       -0.1673
      9 C          66.1036   94.4509   11.3133 C.ar    1  UNL1        0.0806
     10 C          66.6061   95.6545   10.5725 C.3     1  UNL1        0.0540
     11 C          66.4677   94.0633   12.7159 C.ar    1  UNL1        0.0313
     12 C          65.7378   92.7964   13.0510 C.ar    1  UNL1        0.0651
     13 C          65.8104   92.0551   14.3530 C.3     1  UNL1        0.0523
     14 C          63.6059   87.6346   13.4520 C.ar    1  UNL1        0.1005
     15 C          64.0918   87.8475   14.8551 C.ar    1  UNL1        0.0208
     16 C          64.3191   86.6706   15.7568 C.ar    1  UNL1        0.0045
     17 C          64.0605   85.2807   15.2554 C.ar    1  UNL1        0.0343
     18 C          63.5746   85.0678   13.8524 C.ar    1  UNL1        0.1317
     19 N          63.3473   86.2448   12.9507 N.ar    1  UNL1       -0.2292
     20 N          63.3160   83.6779   13.3510 N.pl3   1  UNL1       -0.2931
     21 C          63.6984   83.3028   11.9499 C.3     1  UNL1        0.0946
     22 C          63.4398   81.9129   11.4485 C.3     1  UNL1        0.0507
     23 C          62.7989   80.8982   12.3482 C.3     1  UNL1        0.1139
     24 O          62.5403   79.5083   11.8468 O.3     1  UNL1       -0.3843
     25 C          62.4165   81.2733   13.7493 C.3     1  UNL1        0.0507
     26 C          62.6751   82.6632   14.2507 C.3     1  UNL1        0.0946
     27 H          62.1243   78.9836   12.5486 H       1  UNL1        0.2103
     28 C          59.5237   88.6426    7.8699 C.3     1  UNL1        0.0950
     29 C          60.6367   88.6717    8.8750 C.2     1  UNL1        0.2277
     30 O          61.4614   87.4422    9.1167 O.2     1  UNL1       -0.2747
     31 N          60.9251   89.9303    9.6384 N.am    1  UNL1       -0.2692
     32 H          60.3839   90.7372    9.4798 H       1  UNL1        0.1563
@<TRIPOS>BOND
     1    28    29    1
     2    29    30    2
     3    29    31   am
     4    31     1    1
     5     1     2   ar
     6     2     3   ar
     7     3    14    1
     8    14    15   ar
     9    15    16   ar
    10    16    17   ar
    11    17    18   ar
    12    18    20    1
    13    20    21    1
    14    21    22    1
    15    22    23    1
    16    23    24    1
    17    23    25    1
    18    25    26    1
    19    18    19   ar
    20     3     4   ar
    21     4     5   ar
    22     5     7    1
    23     7     8   ar
    24     8     9   ar
    25     9    10    1
    26     9    11   ar
    27    11    12   ar
    28    12    13    1
    29     5     6   ar
    30     6     1   ar
    31    19    14   ar
    32    12     7   ar
    33    26    20    1
    34    31    32    1
    35    24    27    1
@<TRIPOS>MOLECULE
*****
 32 35 0 0 0
SMALL
GASTEIGER

@<TRIPOS>ATOM
      1 C          62.8512   84.9807    8.6585 C.ar    1  UNL1        0.1389
      2 C          62.6086   86.4024    9.0704 C.ar    1  UNL1        0.0553
      3 C          62.4947   86.7530   10.5244 C.ar    1  UNL1        0.1048
      4 N          62.6234   85.6819   11.5665 N.ar    1  UNL1       -0.2083
      5 C          62.8660   84.2601   11.1546 C.ar    1  UNL1        0.2539
      6 N          62.9799   83.9095    9.7006 N.ar    1  UNL1       -0.1948
      7 N          62.9947   83.1889   12.1967 N.ar    1  UNL1       -0.2008
      8 N          62.3067   81.8561   12.1807 N.ar    1  UNL1       -0.1673
      9 C          62.7208   81.1058   13.4119 C.ar    1  UNL1        0.0806
     10 C          62.2701   79.7283   13.7983 C.3     1  UNL1        0.0540
     11 C          63.6647   81.9751   14.1888 C.ar    1  UNL1        0.0313
     12 C          63.8340   83.2624   13.4378 C.ar    1  UNL1        0.0651
     13 C          64.6920   84.4200   13.8546 C.3     1  UNL1        0.0523
     14 C          62.2521   88.1749   10.9362 C.ar    1  UNL1        0.1005
     15 C          61.1265   88.9523   10.3208 C.ar    1  UNL1        0.0208
     16 C          60.8839   90.3741   10.7326 C.ar    1  UNL1        0.0045
     17 C          61.7668   91.0185   11.7599 C.ar    1  UNL1        0.0343
     18 C          62.8924   90.2411   12.3753 C.ar    1  UNL1        0.1317
     19 N          63.1350   88.8192   11.9635 N.ar    1  UNL1       -0.2292
     20 N          63.7753   90.8854   13.4026 N.pl3   1  UNL1       -0.2931
     21 C          63.5129   90.6632   14.8626 C.3     1  UNL1        0.0946
     22 C          64.3958   91.3076   15.8899 C.3     1  UNL1        0.0507
     23 C          65.5411   92.1741   15.4571 C.3     1  UNL1        0.1139
     24 O          66.4241   92.8185   16.4843 O.3     1  UNL1       -0.3843
     25 C          65.8036   92.3963   13.9970 C.3     1  UNL1        0.0507
     26 C          64.9206   91.7519   12.9698 C.3     1  UNL1        0.0946
     27 H          67.1099   93.3406   16.0395 H       1  UNL1        0.2103
     28 C          61.8560   84.2755    4.8819 C.3     1  UNL1        0.0950
     29 C          61.7422   84.6262    6.3359 C.2     1  UNL1        0.2277
     30 O          60.4053   84.9729    6.9213 O.2     1  UNL1       -0.2747
     31 N          62.9650   84.6300    7.2045 N.am    1  UNL1       -0.2692
     32 H          63.8424   84.4024    6.8203 H       1  UNL1        0.1563
@<TRIPOS>BOND
     1    28    29    1
     2    29    30    2
     3    29    31   am
     4    31     1    1
     5     1     2   ar
     6     2     3   ar
     7     3    14    1
     8    14    15   ar
     9    15    16   ar
    10    16    17   ar
    11    17    18   ar
    12    18    20    1
    13    20    21    1
    14    21    22    1
    15    22    23    1
    16    23    24    1
    17    23    25    1
    18    25    26    1
    19    18    19   ar
    20     3     4   ar
    21     4     5   ar
    22     5     7    1
    23     7     8   ar
    24     8     9   ar
    25     9    10    1
    26     9    11   ar
    27    11    12   ar
    28    12    13    1
    29     5     6   ar
    30     6     1   ar
    31    19    14   ar
    32    12     7   ar
    33    26    20    1
    34    31    32    1
    35    24    27    1
@<TRIPOS>MOLECULE
*****
 32 35 0 0 0
SMALL
GASTEIGER

@<TRIPOS>ATOM
      1 C          62.4413   89.8809   11.4921 C.ar    1  UNL1        0.1389
      2 C          62.5564   88.5323   12.1388 C.ar    1  UNL1        0.0553
      3 C          63.6026   88.2895   13.1859 C.ar    1  UNL1        0.1048
      4 N          64.5338   89.3951   13.5863 N.ar    1  UNL1       -0.2083
      5 C          64.4188   90.7436   12.9396 C.ar    1  UNL1        0.2539
      6 N          63.3725   90.9865   11.8925 N.ar    1  UNL1       -0.1948
      7 N          65.3500   91.8493   13.3400 N.ar    1  UNL1       -0.2008
      8 N          66.0472   91.9796   14.6617 N.ar    1  UNL1       -0.1673
      9 C          66.8756   93.2296   14.6277 C.ar    1  UNL1        0.0806
     10 C          67.7379   93.7466   15.7409 C.3     1  UNL1        0.0540
     11 C          66.6903   93.8720   13.2848 C.ar    1  UNL1        0.0313
     12 C          65.7474   93.0189   12.4891 C.ar    1  UNL1        0.0651
     13 C          65.2835   93.2881   11.0883 C.3     1  UNL1        0.0523
     14 C          63.7176   86.9409   13.8325 C.ar    1  UNL1        0.1005
     15 C          64.0425   86.8347   15.2931 C.ar    1  UNL1        0.0208
     16 C          64.1576   85.4862   15.9397 C.ar    1  UNL1        0.0045
     17 C          63.9476   84.2437   15.1259 C.ar    1  UNL1        0.0343
     18 C          63.6227   84.3499   13.6653 C.ar    1  UNL1        0.1317
     19 N          63.5077   85.6985   13.0187 N.ar    1  UNL1       -0.2292
     20 N          63.4128   83.1075   12.8515 N.pl3   1  UNL1       -0.2931
     21 C          62.8646   81.8705   13.4990 C.3     1  UNL1        0.0946
     22 C          62.6547   80.6280   12.6851 C.3     1  UNL1        0.0507
     23 C          62.9929   80.6227   11.2238 C.3     1  UNL1        0.1139
     24 O          62.7830   79.3803   10.4099 O.3     1  UNL1       -0.3843
     25 C          63.5411   81.8598   10.5763 C.3     1  UNL1        0.0507
     26 C          63.7510   83.1021   11.3901 C.3     1  UNL1        0.0946
     27 H          63.0498   79.5461    9.4922 H       1  UNL1        0.2103
     28 C          60.0397   89.3036    8.3858 C.3     1  UNL1        0.0950
     29 C          61.0860   89.0607    9.4329 C.2     1  UNL1        0.2277
     30 O          61.8231   87.7548    9.4678 O.2     1  UNL1       -0.2747
     31 N          61.3951   90.1237   10.4450 N.am    1  UNL1       -0.2692
     32 H          60.9113   90.9809   10.4221 H       1  UNL1        0.1563
@<TRIPOS>BOND
     1    28    29    1
     2    29    30    2
     3    29    31   am
     4    31     1    1
     5     1     2   ar
     6     2     3   ar
     7     3    14    1
     8    14    15   ar
     9    15    16   ar
    10    16    17   ar
    11    17    18   ar
    12    18    20    1
    13    20    21    1
    14    21    22    1
    15    22    23    1
    16    23    24    1
    17    23    25    1
    18    25    26    1
    19    18    19   ar
    20     3     4   ar
    21     4     5   ar
    22     5     7    1
    23     7     8   ar
    24     8     9   ar
    25     9    10    1
    26     9    11   ar
    27    11    12   ar
    28    12    13    1
    29     5     6   ar
    30     6     1   ar
    31    19    14   ar
    32    12     7   ar
    33    26    20    1
    34    31    32    1
    35    24    27    1
@<TRIPOS>MOLECULE
*****
 32 35 0 0 0
SMALL
GASTEIGER

@<TRIPOS>ATOM
      1 C          65.4714   93.7617   10.6930 C.ar    1  UNL1        0.1389
      2 C          64.4712   92.6763   10.4255 C.ar    1  UNL1        0.0553
      3 C          64.2458   91.5970   11.4425 C.ar    1  UNL1        0.1048
      4 N          65.0204   91.6030   12.7269 N.ar    1  UNL1       -0.2083
      5 C          66.0206   92.6884   12.9944 C.ar    1  UNL1        0.2539
      6 N          66.2461   93.7678   11.9774 N.ar    1  UNL1       -0.1948
      7 N          66.7953   92.6945   14.2788 N.ar    1  UNL1       -0.2008
      8 N          68.2517   93.0213   14.4285 N.ar    1  UNL1       -0.1673
      9 C          68.6062   92.9037   15.8813 C.ar    1  UNL1        0.0806
     10 C          69.9602   93.1434   16.4806 C.3     1  UNL1        0.0540
     11 C          67.3690   92.5042   16.6294 C.ar    1  UNL1        0.0313
     12 C          66.2498   92.3750   15.6391 C.ar    1  UNL1        0.0651
     13 C          64.8338   91.9932   15.9538 C.3     1  UNL1        0.0523
     14 C          63.2455   90.5116   11.1750 C.ar    1  UNL1        0.1005
     15 C          61.9984   90.8156   10.3989 C.ar    1  UNL1        0.0208
     16 C          60.9982   89.7302   10.1314 C.ar    1  UNL1        0.0045
     17 C          61.2451   88.3408   10.6400 C.ar    1  UNL1        0.0343
     18 C          62.4923   88.0368   11.4160 C.ar    1  UNL1        0.1317
     19 N          63.4925   89.1222   11.6835 N.ar    1  UNL1       -0.2292
     20 N          62.7392   86.6474   11.9245 N.pl3   1  UNL1       -0.2931
     21 C          62.2543   85.4644   11.1401 C.3     1  UNL1        0.0946
     22 C          62.5013   84.0750   11.6486 C.3     1  UNL1        0.0507
     23 C          63.2330   83.8686   12.9416 C.3     1  UNL1        0.1139
     24 O          63.4800   82.4792   13.4501 O.3     1  UNL1       -0.3843
     25 C          63.7179   85.0516   13.7261 C.3     1  UNL1        0.0507
     26 C          63.4710   86.4410   13.2176 C.3     1  UNL1        0.0946
     27 H          63.9615   82.5235   14.2910 H       1  UNL1        0.2103
     28 C          67.3090   96.2068    8.1642 C.3     1  UNL1        0.0950
     29 C          67.0836   95.1274    9.1812 C.2     1  UNL1        0.2277
     30 O          68.2449   94.3345    9.7034 O.2     1  UNL1       -0.2747
     31 N          65.6968   94.8410    9.6760 N.am    1  UNL1       -0.2692
     32 H          64.9346   95.3614    9.3333 H       1  UNL1        0.1563
@<TRIPOS>BOND
     1    28    29    1
     2    29    30    2
     3    29    31   am
     4    31     1    1
     5     1     2   ar
     6     2     3   ar
     7     3    14    1
     8    14    15   ar
     9    15    16   ar
    10    16    17   ar
    11    17    18   ar
    12    18    20    1
    13    20    21    1
    14    21    22    1
    15    22    23    1
    16    23    24    1
    17    23    25    1
    18    25    26    1
    19    18    19   ar
    20     3     4   ar
    21     4     5   ar
    22     5     7    1
    23     7     8   ar
    24     8     9   ar
    25     9    10    1
    26     9    11   ar
    27    11    12   ar
    28    12    13    1
    29     5     6   ar
    30     6     1   ar
    31    19    14   ar
    32    12     7   ar
    33    26    20    1
    34    31    32    1
    35    24    27    1
@<TRIPOS>MOLECULE
*****
 32 35 0 0 0
SMALL
GASTEIGER

@<TRIPOS>ATOM
      1 C          62.3351   86.6320   11.9693 C.ar    1  UNL1        0.1389
      2 C          63.1463   87.7644   12.5257 C.ar    1  UNL1        0.0553
      3 C          63.1248   89.1044   11.8518 C.ar    1  UNL1        0.1048
      4 N          62.2922   89.3119   10.6215 N.ar    1  UNL1       -0.2083
      5 C          61.4811   88.1794   10.0651 C.ar    1  UNL1        0.2539
      6 N          61.5025   86.8395   10.7390 N.ar    1  UNL1       -0.1948
      7 N          60.6484   88.3869    8.8348 N.ar    1  UNL1       -0.2008
      8 N          60.2175   89.7100    8.2745 N.ar    1  UNL1       -0.1673
      9 C          59.4033   89.4486    7.0422 C.ar    1  UNL1        0.0806
     10 C          58.7722   90.4891    6.1653 C.3     1  UNL1        0.0540
     11 C          59.3309   87.9639    6.8408 C.ar    1  UNL1        0.0313
     12 C          60.1004   87.3078    7.9487 C.ar    1  UNL1        0.0651
     13 C          60.2888   85.8317    8.1373 C.3     1  UNL1        0.0523
     14 C          63.9360   90.2368   12.4083 C.ar    1  UNL1        0.1005
     15 C          64.0975   90.3854   13.8921 C.ar    1  UNL1        0.0208
     16 C          64.9087   91.5178   14.4486 C.ar    1  UNL1        0.0045
     17 C          65.5584   92.5016   13.5212 C.ar    1  UNL1        0.0343
     18 C          65.3968   92.3531   12.0373 C.ar    1  UNL1        0.1317
     19 N          64.5856   91.2206   11.4809 N.ar    1  UNL1       -0.2292
     20 N          66.0465   93.3369   11.1100 N.pl3   1  UNL1       -0.2931
     21 C          66.9942   92.8564   10.0512 C.3     1  UNL1        0.0946
     22 C          67.6438   93.8402    9.1237 C.3     1  UNL1        0.0507
     23 C          67.3458   95.3045    9.2551 C.3     1  UNL1        0.1139
     24 O          67.9954   96.2882    8.3277 O.3     1  UNL1       -0.3843
     25 C          66.3980   95.7848   10.3140 C.3     1  UNL1        0.0507
     26 C          65.7484   94.8011   11.2413 C.3     1  UNL1        0.0946
     27 H          67.6969   97.1848    8.5468 H       1  UNL1        0.2103
     28 C          62.8578   82.7439   12.5688 C.3     1  UNL1        0.0950
     29 C          62.8363   84.0838   11.8949 C.2     1  UNL1        0.2277
     30 O          63.2946   84.2155   10.4727 O.2     1  UNL1       -0.2747
     31 N          62.3566   85.2921   12.6432 N.am    1  UNL1       -0.2692
     32 H          62.0558   85.2057   13.5767 H       1  UNL1        0.1563
@<TRIPOS>BOND
     1    28    29    1
     2    29    30    2
     3    29    31   am
     4    31     1    1
     5     1     2   ar
     6     2     3   ar
     7     3    14    1
     8    14    15   ar
     9    15    16   ar
    10    16    17   ar
    11    17    18   ar
    12    18    20    1
    13    20    21    1
    14    21    22    1
    15    22    23    1
    16    23    24    1
    17    23    25    1
    18    25    26    1
    19    18    19   ar
    20     3     4   ar
    21     4     5   ar
    22     5     7    1
    23     7     8   ar
    24     8     9   ar
    25     9    10    1
    26     9    11   ar
    27    11    12   ar
    28    12    13    1
    29     5     6   ar
    30     6     1   ar
    31    19    14   ar
    32    12     7   ar
    33    26    20    1
    34    31    32    1
    35    24    27    1
@<TRIPOS>MOLECULE
*****
 32 35 0 0 0
SMALL
GASTEIGER

@<TRIPOS>ATOM
      1 C          63.3597   91.0038   11.5658 C.ar    1  UNL1        0.1389
      2 C          63.7451   89.9083   12.5152 C.ar    1  UNL1        0.0553
      3 C          63.1970   88.5249   12.3264 C.ar    1  UNL1        0.1048
      4 N          62.2635   88.2369   11.1882 N.ar    1  UNL1       -0.2083
      5 C          61.8781   89.3323   10.2388 C.ar    1  UNL1        0.2539
      6 N          62.4262   90.7158   10.4276 N.ar    1  UNL1       -0.1948
      7 N          60.9446   89.0444    9.1005 N.ar    1  UNL1       -0.2008
      8 N          60.3818   90.0542    8.1447 N.ar    1  UNL1       -0.1673
      9 C          59.4994   89.3300    7.1716 C.ar    1  UNL1        0.0806
     10 C          58.7339   89.9537    6.0425 C.3     1  UNL1        0.0540
     11 C          59.5168   87.8726    7.5260 C.ar    1  UNL1        0.0313
     12 C          60.4100   87.6960    8.7181 C.ar    1  UNL1        0.0651
     13 C          60.7150   86.3989    9.4068 C.3     1  UNL1        0.0523
     14 C          63.5824   87.4294   13.2759 C.ar    1  UNL1        0.1005
     15 C          64.3265   87.7568   14.5365 C.ar    1  UNL1        0.0208
     16 C          64.7119   86.6615   15.4860 C.ar    1  UNL1        0.0045
     17 C          64.3533   85.2385   15.1748 C.ar    1  UNL1        0.0343
     18 C          63.6093   84.9111   13.9142 C.ar    1  UNL1        0.1317
     19 N          63.2238   86.0065   12.9647 N.ar    1  UNL1       -0.2292
     20 N          63.2506   83.4882   13.6031 N.pl3   1  UNL1       -0.2931
     21 C          63.7019   82.8655   12.3152 C.3     1  UNL1        0.0946
     22 C          63.3432   81.4426   12.0040 C.3     1  UNL1        0.0507
     23 C          62.5334   80.6425   12.9807 C.3     1  UNL1        0.1139
     24 O          62.1748   79.2196   12.6695 O.3     1  UNL1       -0.3843
     25 C          62.0822   81.2652   14.2686 C.3     1  UNL1        0.0507
     26 C          62.4408   82.6881   14.5797 C.3     1  UNL1        0.0946
     27 H          61.6536   78.8505   13.3996 H       1  UNL1        0.2103
     28 C          65.7743   94.1447   11.3339 C.3     1  UNL1        0.0950
     29 C          65.2262   92.7613   11.1451 C.2     1  UNL1        0.2277
     30 O          65.9967   91.7518   10.3466 O.2     1  UNL1       -0.2747
     31 N          63.9078   92.3872   11.7547 N.am    1  UNL1       -0.2692
     32 H          63.4021   93.0497   12.2787 H       1  UNL1        0.1563
@<TRIPOS>BOND
     1    28    29    1
     2    29    30    2
     3    29    31   am
     4    31     1    1
     5     1     2   ar
     6     2     3   ar
     7     3    14    1
     8    14    15   ar
     9    15    16   ar
    10    16    17   ar
    11    17    18   ar
    12    18    20    1
    13    20    21    1
    14    21    22    1
    15    22    23    1
    16    23    24    1
    17    23    25    1
    18    25    26    1
    19    18    19   ar
    20     3     4   ar
    21     4     5   ar
    22     5     7    1
    23     7     8   ar
    24     8     9   ar
    25     9    10    1
    26     9    11   ar
    27    11    12   ar
    28    12    13    1
    29     5     6   ar
    30     6     1   ar
    31    19    14   ar
    32    12     7   ar
    33    26    20    1
    34    31    32    1
    35    24    27    1
@<TRIPOS>MOLECULE
*****
 32 35 0 0 0
SMALL
GASTEIGER

@<TRIPOS>ATOM
      1 C          65.5826   92.9416   10.4450 C.ar    1  UNL1        0.1389
      2 C          64.3627   92.0778   10.3207 C.ar    1  UNL1        0.0553
      3 C          63.8811   91.2859   11.5001 C.ar    1  UNL1        0.1048
      4 N          64.6194   91.3577   12.8038 N.ar    1  UNL1       -0.2083
      5 C          65.8394   92.2215   12.9281 C.ar    1  UNL1        0.2539
      6 N          66.3210   93.0135   11.7487 N.ar    1  UNL1       -0.1948
      7 N          66.5778   92.2934   14.2318 N.ar    1  UNL1       -0.2008
      8 N          68.0505   92.5240   14.3994 N.ar    1  UNL1       -0.1673
      9 C          68.3561   92.5205   15.8679 C.ar    1  UNL1        0.0806
     10 C          69.7081   92.7154   16.4876 C.3     1  UNL1        0.0540
     11 C          67.0722   92.2877   16.6079 C.ar    1  UNL1        0.0313
     12 C          65.9732   92.1474   15.5968 C.ar    1  UNL1        0.0651
     13 C          64.5241   91.9039   15.8977 C.3     1  UNL1        0.0523
     14 C          62.6610   90.4220   11.3757 C.ar    1  UNL1        0.1005
     15 C          61.4849   90.6509   12.2781 C.ar    1  UNL1        0.0208
     16 C          60.2649   89.7872   12.1538 C.ar    1  UNL1        0.0045
     17 C          60.2210   88.6944   11.1271 C.ar    1  UNL1        0.0343
     18 C          61.3971   88.4656   10.2247 C.ar    1  UNL1        0.1317
     19 N          62.6172   89.3294   10.3490 N.ar    1  UNL1       -0.2292
     20 N          61.3533   87.3729    9.1980 N.pl3   1  UNL1       -0.2931
     21 C          60.1019   87.1389    8.4048 C.3     1  UNL1        0.0946
     22 C          60.0580   86.0462    7.3780 C.3     1  UNL1        0.0507
     23 C          61.2656   85.1876    7.1445 C.3     1  UNL1        0.1139
     24 O          61.2218   84.0949    6.1178 O.3     1  UNL1       -0.3843
     25 C          62.5170   85.4216    7.9377 C.3     1  UNL1        0.0507
     26 C          62.5609   86.5143    8.9644 C.3     1  UNL1        0.0946
     27 H          62.0779   83.6396    6.0935 H       1  UNL1        0.2103
     28 C          67.1199   95.8965    8.2875 C.3     1  UNL1        0.0950
     29 C          66.6383   95.1046    9.4669 C.2     1  UNL1        0.2277
     30 O          66.7309   95.6838   10.8475 O.2     1  UNL1       -0.2747
     31 N          66.0642   93.7335    9.2657 N.am    1  UNL1       -0.2692
     32 H          66.0035   93.3534    8.3595 H       1  UNL1        0.1563
@<TRIPOS>BOND
     1    28    29    1
     2    29    30    2
     3    29    31   am
     4    31     1    1
     5     1     2   ar
     6     2     3   ar
     7     3    14    1
     8    14    15   ar
     9    15    16   ar
    10    16    17   ar
    11    17    18   ar
    12    18    20    1
    13    20    21    1
    14    21    22    1
    15    22    23    1
    16    23    24    1
    17    23    25    1
    18    25    26    1
    19    18    19   ar
    20     3     4   ar
    21     4     5   ar
    22     5     7    1
    23     7     8   ar
    24     8     9   ar
    25     9    10    1
    26     9    11   ar
    27    11    12   ar
    28    12    13    1
    29     5     6   ar
    30     6     1   ar
    31    19    14   ar
    32    12     7   ar
    33    26    20    1
    34    31    32    1
    35    24    27    1
