@<TRIPOS>MOLECULE
*****
 23 25 0 0 0
SMALL
GASTEIGER

@<TRIPOS>ATOM
      1 C          66.4824   93.1994   13.4431 C.ar    1  UNL1        0.1724
      2 C          65.8067   92.0065   14.0517 C.ar    1  UNL1        0.0400
      3 C          64.8098   91.2204   13.2527 C.ar    1  UNL1        0.0032
      4 C          64.1341   90.0276   13.8613 C.ar    1  UNL1       -0.0002
      5 C          63.1373   89.2415   13.0624 C.ar    1  UNL1       -0.0023
      6 C          62.8161   89.6484   11.6548 C.ar    1  UNL1        0.0017
      7 C          63.4918   90.8413   11.0461 C.ar    1  UNL1       -0.0022
      8 C          64.4886   91.6273   11.8451 C.ar    1  UNL1        0.0030
      9 C          65.1644   92.8202   11.2365 C.ar    1  UNL1        0.0400
     10 C          66.1612   93.6063   12.0355 C.ar    1  UNL1        0.1724
     11 C          67.9185   93.4912   15.5884 C.3     1  UNL1        0.2526
     12 O          67.4793   93.9855   14.2420 O.3     1  UNL1       -0.4684
     13 O          66.8370   94.7992   11.4268 O.3     1  UNL1       -0.4684
     14 C          66.0672   96.0685   11.2116 C.3     1  UNL1        0.2526
     15 C          61.8192   88.8623   10.8558 C.3     1  UNL1        0.1493
     16 N          62.0424   87.3998   10.6082 N.ar    1  UNL1       -0.1486
     17 N          61.8560   86.2977   11.6084 N.ar    1  UNL1       -0.1261
     18 C          62.1896   84.9994   10.9352 C.ar    1  UNL1        0.2448
     19 N          62.5822   85.2991    9.5189 N.ar    1  UNL1       -0.1044
     20 N          62.4912   86.7827    9.3168 N.ar    1  UNL1       -0.0447
     21 C          60.5991   89.5387   10.3045 C.3     1  UNL1        0.0286
     22 C          59.7886   90.4510   11.1768 C.3     1  UNL1        0.0024
     23 C          60.1895   89.3028    8.8809 C.3     1  UNL1        0.0024
@<TRIPOS>BOND
     1    11    12    1
     2    12     1    1
     3     1     2   ar
     4     2     3   ar
     5     3     4   ar
     6     4     5   ar
     7     5     6   ar
     8     6    15    1
     9    15    21    1
    10    21    22    1
    11    21    23    1
    12    15    16    1
    13    16    17   ar
    14    17    18   ar
    15    18    19   ar
    16    19    20   ar
    17     6     7   ar
    18     7     8   ar
    19     8     9   ar
    20     9    10   ar
    21    10    13    1
    22    13    14    1
    23    10     1   ar
    24     8     3   ar
    25    20    16   ar
@<TRIPOS>MOLECULE
*****
 23 25 0 0 0
SMALL
GASTEIGER

@<TRIPOS>ATOM
      1 C          65.7914   93.1923   12.5426 C.ar    1  UNL1        0.1724
      2 C          65.0230   92.8430   11.3027 C.ar    1  UNL1        0.0400
      3 C          64.1856   91.5991   11.2648 C.ar    1  UNL1        0.0032
      4 C          63.4172   91.2498   10.0249 C.ar    1  UNL1       -0.0002
      5 C          62.5798   90.0059    9.9870 C.ar    1  UNL1       -0.0023
      6 C          62.5109   89.1112   11.1890 C.ar    1  UNL1        0.0017
      7 C          63.2794   89.4605   12.4289 C.ar    1  UNL1       -0.0022
      8 C          64.1167   90.7044   12.4668 C.ar    1  UNL1        0.0030
      9 C          64.8852   91.0538   13.7068 C.ar    1  UNL1        0.0400
     10 C          65.7226   92.2977   13.7447 C.ar    1  UNL1        0.1724
     11 C          66.3735   95.5425   11.6003 C.3     1  UNL1        0.2526
     12 O          66.6289   94.4363   12.5806 O.3     1  UNL1       -0.4684
     13 O          66.4911   92.6470   14.9846 O.3     1  UNL1       -0.4684
     14 C          67.7983   91.9701   15.2724 C.3     1  UNL1        0.2526
     15 C          61.6735   87.8673   11.1511 C.3     1  UNL1        0.1493
     16 N          62.2796   86.5439   11.5133 N.ar    1  UNL1       -0.1486
     17 N          62.2723   85.3084   10.6627 N.ar    1  UNL1       -0.1261
     18 C          62.9876   84.2245   11.4134 C.ar    1  UNL1        0.2448
     19 N          63.4370   84.7901   12.7280 N.ar    1  UNL1       -0.1044
     20 N          62.9994   86.2235   12.7897 N.ar    1  UNL1       -0.0447
     21 C          60.2301   87.9468   10.7509 C.3     1  UNL1        0.0286
     22 C          59.2309   88.5845   11.6702 C.3     1  UNL1        0.0024
     23 C          59.7857   87.3885    9.4315 C.3     1  UNL1        0.0024
@<TRIPOS>BOND
     1    11    12    1
     2    12     1    1
     3     1     2   ar
     4     2     3   ar
     5     3     4   ar
     6     4     5   ar
     7     5     6   ar
     8     6    15    1
     9    15    21    1
    10    21    22    1
    11    21    23    1
    12    15    16    1
    13    16    17   ar
    14    17    18   ar
    15    18    19   ar
    16    19    20   ar
    17     6     7   ar
    18     7     8   ar
    19     8     9   ar
    20     9    10   ar
    21    10    13    1
    22    13    14    1
    23    10     1   ar
    24     8     3   ar
    25    20    16   ar
@<TRIPOS>MOLECULE
*****
 23 25 0 0 0
SMALL
GASTEIGER

@<TRIPOS>ATOM
      1 C          63.4988   82.9142   13.6822 C.ar    1  UNL1        0.1724
      2 C          63.9713   83.9406   14.6686 C.ar    1  UNL1        0.0400
      3 C          63.9068   85.3988   14.3228 C.ar    1  UNL1        0.0032
      4 C          64.3794   86.4252   15.3093 C.ar    1  UNL1       -0.0002
      5 C          64.3149   87.8833   14.9635 C.ar    1  UNL1       -0.0023
      6 C          63.7778   88.3151   13.6311 C.ar    1  UNL1        0.0017
      7 C          63.3052   87.2887   12.6446 C.ar    1  UNL1       -0.0022
      8 C          63.3697   85.8306   12.9905 C.ar    1  UNL1        0.0030
      9 C          62.8971   84.8041   12.0040 C.ar    1  UNL1        0.0400
     10 C          62.9617   83.3460   12.3498 C.ar    1  UNL1        0.1724
     11 C          62.3071   80.6370   14.0619 C.3     1  UNL1        0.2526
     12 O          63.5633   81.4560   14.0280 O.3     1  UNL1       -0.4684
     13 O          62.4891   82.3195   11.3633 O.3     1  UNL1       -0.4684
     14 C          63.4559   81.7149   10.3888 C.3     1  UNL1        0.2526
     15 C          63.7133   89.7733   13.2853 C.3     1  UNL1        0.1493
     16 N          64.3839   90.7838   14.1680 N.ar    1  UNL1       -0.1486
     17 N          65.7707   91.3272   13.9906 N.ar    1  UNL1       -0.1261
     18 C          66.0294   92.3076   15.0960 C.ar    1  UNL1        0.2448
     19 N          64.8025   92.3700   15.9567 N.ar    1  UNL1       -0.1044
     20 N          63.7856   91.4282   15.3832 N.ar    1  UNL1       -0.0447
     21 C          62.9782   90.2209   12.0568 C.3     1  UNL1        0.0286
     22 C          63.6950   91.0051   10.9978 C.3     1  UNL1        0.0024
     23 C          61.5263   89.8845   11.8873 C.3     1  UNL1        0.0024
@<TRIPOS>BOND
     1    11    12    1
     2    12     1    1
     3     1     2   ar
     4     2     3   ar
     5     3     4   ar
     6     4     5   ar
     7     5     6   ar
     8     6    15    1
     9    15    21    1
    10    21    22    1
    11    21    23    1
    12    15    16    1
    13    16    17   ar
    14    17    18   ar
    15    18    19   ar
    16    19    20   ar
    17     6     7   ar
    18     7     8   ar
    19     8     9   ar
    20     9    10   ar
    21    10    13    1
    22    13    14    1
    23    10     1   ar
    24     8     3   ar
    25    20    16   ar
@<TRIPOS>MOLECULE
*****
 23 25 0 0 0
SMALL
GASTEIGER

@<TRIPOS>ATOM
      1 C          61.1846   87.0895    9.7842 C.ar    1  UNL1        0.1724
      2 C          61.4446   88.5348    9.4787 C.ar    1  UNL1        0.0400
      3 C          62.3272   89.3452   10.3812 C.ar    1  UNL1        0.0032
      4 C          62.5872   90.7905   10.0756 C.ar    1  UNL1       -0.0002
      5 C          63.4697   91.6008   10.9781 C.ar    1  UNL1       -0.0023
      6 C          64.0923   90.9658   12.1860 C.ar    1  UNL1        0.0017
      7 C          63.8323   89.5205   12.4915 C.ar    1  UNL1       -0.0022
      8 C          62.9497   88.7102   11.5891 C.ar    1  UNL1        0.0030
      9 C          62.6897   87.2648   11.8946 C.ar    1  UNL1        0.0400
     10 C          61.8071   86.4545   10.9922 C.ar    1  UNL1        0.1724
     11 C          59.1840   86.9422    8.1331 C.3     1  UNL1        0.2526
     12 O          60.3019   86.2791    8.8817 O.3     1  UNL1       -0.4684
     13 O          61.5471   85.0091   11.2976 O.3     1  UNL1       -0.4684
     14 C          62.6622   84.1337   11.7876 C.3     1  UNL1        0.2526
     15 C          64.9749   91.7762   13.0885 C.3     1  UNL1        0.1493
     16 N          64.6812   91.8482   14.5577 N.ar    1  UNL1       -0.1486
     17 N          65.5271   92.5273   15.5937 N.ar    1  UNL1       -0.1261
     18 C          64.8587   92.3525   16.9252 C.ar    1  UNL1        0.2448
     19 N          63.5997   91.5654   16.7120 N.ar    1  UNL1       -0.1044
     20 N          63.4900   91.2537   15.2489 N.ar    1  UNL1       -0.0447
     21 C          66.1512   92.5145   12.5217 C.3     1  UNL1        0.0286
     22 C          67.5269   91.9254   12.6244 C.3     1  UNL1        0.0024
     23 C          65.9518   93.8420   11.8523 C.3     1  UNL1        0.0024
@<TRIPOS>BOND
     1    11    12    1
     2    12     1    1
     3     1     2   ar
     4     2     3   ar
     5     3     4   ar
     6     4     5   ar
     7     5     6   ar
     8     6    15    1
     9    15    21    1
    10    21    22    1
    11    21    23    1
    12    15    16    1
    13    16    17   ar
    14    17    18   ar
    15    18    19   ar
    16    19    20   ar
    17     6     7   ar
    18     7     8   ar
    19     8     9   ar
    20     9    10   ar
    21    10    13    1
    22    13    14    1
    23    10     1   ar
    24     8     3   ar
    25    20    16   ar
@<TRIPOS>MOLECULE
*****
 23 25 0 0 0
SMALL
GASTEIGER

@<TRIPOS>ATOM
      1 C          62.9557   84.1537   12.1812 C.ar    1  UNL1        0.1724
      2 C          62.6683   85.5087   11.6057 C.ar    1  UNL1        0.0400
      3 C          63.1140   86.7425   12.3332 C.ar    1  UNL1        0.0032
      4 C          62.8266   88.0976   11.7576 C.ar    1  UNL1       -0.0002
      5 C          63.2723   89.3313   12.4851 C.ar    1  UNL1       -0.0023
      6 C          64.0053   89.2100   13.7881 C.ar    1  UNL1        0.0017
      7 C          64.2927   87.8550   14.3637 C.ar    1  UNL1       -0.0022
      8 C          63.8471   86.6212   13.6362 C.ar    1  UNL1        0.0030
      9 C          64.1345   85.2661   14.2117 C.ar    1  UNL1        0.0400
     10 C          63.6888   84.0324   13.4843 C.ar    1  UNL1        0.1724
     11 C          63.5080   82.0922   10.6996 C.3     1  UNL1        0.2526
     12 O          62.5100   82.9199   11.4537 O.3     1  UNL1       -0.4684
     13 O          63.9762   82.6773   14.0598 O.3     1  UNL1       -0.4684
     14 C          62.8452   81.7596   14.4185 C.3     1  UNL1        0.2526
     15 C          64.4510   90.4438   14.5156 C.3     1  UNL1        0.1493
     16 N          65.3939   91.4049   13.8543 N.ar    1  UNL1       -0.1486
     17 N          65.0219   92.4541   12.8490 N.ar    1  UNL1       -0.1261
     18 C          66.2723   93.1833   12.4556 C.ar    1  UNL1        0.2448
     19 N          67.4172   92.5847   13.2178 N.ar    1  UNL1       -0.1044
     20 N          66.8742   91.4856   14.0823 N.ar    1  UNL1       -0.0447
     21 C          63.9539   90.7164   15.9043 C.3     1  UNL1        0.0286
     22 C          63.1062   89.7001   16.6105 C.3     1  UNL1        0.0024
     23 C          64.3044   92.0053   16.5869 C.3     1  UNL1        0.0024
@<TRIPOS>BOND
     1    11    12    1
     2    12     1    1
     3     1     2   ar
     4     2     3   ar
     5     3     4   ar
     6     4     5   ar
     7     5     6   ar
     8     6    15    1
     9    15    21    1
    10    21    22    1
    11    21    23    1
    12    15    16    1
    13    16    17   ar
    14    17    18   ar
    15    18    19   ar
    16    19    20   ar
    17     6     7   ar
    18     7     8   ar
    19     8     9   ar
    20     9    10   ar
    21    10    13    1
    22    13    14    1
    23    10     1   ar
    24     8     3   ar
    25    20    16   ar
@<TRIPOS>MOLECULE
*****
 23 25 0 0 0
SMALL
GASTEIGER

@<TRIPOS>ATOM
      1 C          60.9368   89.2835   11.5914 C.ar    1  UNL1        0.1724
      2 C          61.8941   89.7991   12.6247 C.ar    1  UNL1        0.0400
      3 C          63.0827   90.6129   12.2063 C.ar    1  UNL1        0.0032
      4 C          64.0399   91.1286   13.2396 C.ar    1  UNL1       -0.0002
      5 C          65.2284   91.9423   12.8212 C.ar    1  UNL1       -0.0023
      6 C          65.4597   92.2405   11.3694 C.ar    1  UNL1        0.0017
      7 C          64.5025   91.7248   10.3361 C.ar    1  UNL1       -0.0022
      8 C          63.3140   90.9111   10.7545 C.ar    1  UNL1        0.0030
      9 C          62.3567   90.3954    9.7212 C.ar    1  UNL1        0.0400
     10 C          61.1681   89.5816   10.1397 C.ar    1  UNL1        0.1724
     11 C          58.6021   89.1265   12.7204 C.3     1  UNL1        0.2526
     12 O          59.7482   88.4697   12.0098 O.3     1  UNL1       -0.4684
     13 O          60.2108   89.0660    9.1063 O.3     1  UNL1       -0.4684
     14 C          60.4086   87.7016    8.5152 C.3     1  UNL1        0.2526
     15 C          66.6483   93.0543   10.9510 C.3     1  UNL1        0.1493
     16 N          66.5584   94.5512   10.9182 N.ar    1  UNL1       -0.1486
     17 N          66.8988   95.4296    9.7509 N.ar    1  UNL1       -0.1261
     18 C          66.6630   96.8539   10.1581 C.ar    1  UNL1        0.2448
     19 N          66.1768   96.8557   11.5772 N.ar    1  UNL1       -0.1044
     20 N          66.1122   95.4326   12.0469 N.ar    1  UNL1       -0.0447
     21 C          67.9268   92.3711   10.5654 C.3     1  UNL1        0.0286
     22 C          68.4115   92.4319    9.1471 C.3     1  UNL1        0.0024
     23 C          68.7207   91.6272   11.5981 C.3     1  UNL1        0.0024
@<TRIPOS>BOND
     1    11    12    1
     2    12     1    1
     3     1     2   ar
     4     2     3   ar
     5     3     4   ar
     6     4     5   ar
     7     5     6   ar
     8     6    15    1
     9    15    21    1
    10    21    22    1
    11    21    23    1
    12    15    16    1
    13    16    17   ar
    14    17    18   ar
    15    18    19   ar
    16    19    20   ar
    17     6     7   ar
    18     7     8   ar
    19     8     9   ar
    20     9    10   ar
    21    10    13    1
    22    13    14    1
    23    10     1   ar
    24     8     3   ar
    25    20    16   ar
@<TRIPOS>MOLECULE
*****
 23 25 0 0 0
SMALL
GASTEIGER

@<TRIPOS>ATOM
      1 C          60.5222   89.2844   11.5516 C.ar    1  UNL1        0.1724
      2 C          61.4058   89.4819   12.7476 C.ar    1  UNL1        0.0400
      3 C          62.6805   90.2619   12.6177 C.ar    1  UNL1        0.0032
      4 C          63.5640   90.4594   13.8136 C.ar    1  UNL1       -0.0002
      5 C          64.8386   91.2394   13.6837 C.ar    1  UNL1       -0.0023
      6 C          65.2297   91.8218   12.3579 C.ar    1  UNL1        0.0017
      7 C          64.3461   91.6243   11.1620 C.ar    1  UNL1       -0.0022
      8 C          63.0715   90.8444   11.2919 C.ar    1  UNL1        0.0030
      9 C          62.1879   90.6468   10.0959 C.ar    1  UNL1        0.0400
     10 C          60.9132   89.8668   10.2258 C.ar    1  UNL1        0.1724
     11 C          58.2739   88.8349   12.7737 C.3     1  UNL1        0.2526
     12 O          59.2475   88.5043   11.6815 O.3     1  UNL1       -0.4684
     13 O          60.0296   89.6693    9.0299 O.3     1  UNL1       -0.4684
     14 C          59.9848   88.3369    8.3424 C.3     1  UNL1        0.2526
     15 C          66.5044   92.6019   12.2280 C.3     1  UNL1        0.1493
     16 N          67.3494   92.8649   13.4391 N.ar    1  UNL1       -0.1486
     17 N          66.9946   93.7691   14.5822 N.ar    1  UNL1       -0.1261
     18 C          68.1234   93.7330   15.5694 C.ar    1  UNL1        0.2448
     19 N          69.1758   92.8065   15.0364 N.ar    1  UNL1       -0.1044
     20 N          68.6974   92.2700   13.7199 N.ar    1  UNL1       -0.0447
     21 C          66.9341   93.1187   10.8871 C.3     1  UNL1        0.0286
     22 C          66.4981   94.4804   10.4333 C.3     1  UNL1        0.0024
     23 C          67.7997   92.2740    9.9999 C.3     1  UNL1        0.0024
@<TRIPOS>BOND
     1    11    12    1
     2    12     1    1
     3     1     2   ar
     4     2     3   ar
     5     3     4   ar
     6     4     5   ar
     7     5     6   ar
     8     6    15    1
     9    15    21    1
    10    21    22    1
    11    21    23    1
    12    15    16    1
    13    16    17   ar
    14    17    18   ar
    15    18    19   ar
    16    19    20   ar
    17     6     7   ar
    18     7     8   ar
    19     8     9   ar
    20     9    10   ar
    21    10    13    1
    22    13    14    1
    23    10     1   ar
    24     8     3   ar
    25    20    16   ar
@<TRIPOS>MOLECULE
*****
 23 25 0 0 0
SMALL
GASTEIGER

@<TRIPOS>ATOM
      1 C          61.7763   86.4159   10.0200 C.ar    1  UNL1        0.1724
      2 C          61.8766   87.9119    9.9760 C.ar    1  UNL1        0.0400
      3 C          62.5441   88.6521   11.0970 C.ar    1  UNL1        0.0032
      4 C          62.6444   90.1481   11.0530 C.ar    1  UNL1       -0.0002
      5 C          63.3119   90.8883   12.1739 C.ar    1  UNL1       -0.0023
      6 C          63.8792   90.1325   13.3388 C.ar    1  UNL1        0.0017
      7 C          63.7790   88.6365   13.3827 C.ar    1  UNL1       -0.0022
      8 C          63.1114   87.8964   12.2618 C.ar    1  UNL1        0.0030
      9 C          63.0112   86.4003   12.3058 C.ar    1  UNL1        0.0400
     10 C          62.3436   85.6601   11.1849 C.ar    1  UNL1        0.1724
     11 C          60.1218   86.3813    8.0172 C.3     1  UNL1        0.2526
     12 O          61.1088   85.6756    8.8990 O.3     1  UNL1       -0.4684
     13 O          62.2434   84.1641   11.2288 O.3     1  UNL1       -0.4684
     14 C          62.9050   83.4003   12.3374 C.3     1  UNL1        0.2526
     15 C          64.5468   90.8728   14.4597 C.3     1  UNL1        0.1493
     16 N          65.8015   91.6529   14.2009 N.ar    1  UNL1       -0.1486
     17 N          67.1929   91.2338   14.5731 N.ar    1  UNL1       -0.1261
     18 C          68.1365   92.3110   14.1266 C.ar    1  UNL1        0.2448
     19 N          67.3284   93.3958   13.4785 N.ar    1  UNL1       -0.1044
     20 N          65.8853   92.9891   13.5244 N.ar    1  UNL1       -0.0447
     21 C          63.9595   90.8329   15.8394 C.3     1  UNL1        0.0286
     22 C          63.1809   89.6321   16.2887 C.3     1  UNL1        0.0024
     23 C          64.1509   91.9938   16.7698 C.3     1  UNL1        0.0024
@<TRIPOS>BOND
     1    11    12    1
     2    12     1    1
     3     1     2   ar
     4     2     3   ar
     5     3     4   ar
     6     4     5   ar
     7     5     6   ar
     8     6    15    1
     9    15    21    1
    10    21    22    1
    11    21    23    1
    12    15    16    1
    13    16    17   ar
    14    17    18   ar
    15    18    19   ar
    16    19    20   ar
    17     6     7   ar
    18     7     8   ar
    19     8     9   ar
    20     9    10   ar
    21    10    13    1
    22    13    14    1
    23    10     1   ar
    24     8     3   ar
    25    20    16   ar
@<TRIPOS>MOLECULE
*****
 23 25 0 0 0
SMALL
GASTEIGER

@<TRIPOS>ATOM
      1 C          63.4028   82.7744   11.8612 C.ar    1  UNL1        0.1724
      2 C          63.1330   83.4686   10.5593 C.ar    1  UNL1        0.0400
      3 C          62.8095   84.9333   10.5432 C.ar    1  UNL1        0.0032
      4 C          62.5396   85.6275    9.2412 C.ar    1  UNL1       -0.0002
      5 C          62.2162   87.0921    9.2251 C.ar    1  UNL1       -0.0023
      6 C          62.1625   87.8624   10.5111 C.ar    1  UNL1        0.0017
      7 C          62.4323   87.1682   11.8131 C.ar    1  UNL1       -0.0022
      8 C          62.7558   85.7036   11.8291 C.ar    1  UNL1        0.0030
      9 C          63.0256   85.0093   13.1311 C.ar    1  UNL1        0.0400
     10 C          63.3491   83.5448   13.1472 C.ar    1  UNL1        0.1724
     11 C          62.7158   80.3240   12.3843 C.3     1  UNL1        0.2526
     12 O          63.7263   81.3097   11.8773 O.3     1  UNL1       -0.4684
     13 O          63.6190   82.8505   14.4492 O.3     1  UNL1       -0.4684
     14 C          63.7908   83.6523   15.7052 C.3     1  UNL1        0.2526
     15 C          61.8390   89.3271   10.4950 C.3     1  UNL1        0.1493
     16 N          62.8831   90.3301   10.8870 N.ar    1  UNL1       -0.1486
     17 N          63.4885   90.4856   12.2506 N.ar    1  UNL1       -0.1261
     18 C          64.4847   91.6054   12.1906 C.ar    1  UNL1        0.2448
     19 N          64.4951   92.1420   10.7899 N.ar    1  UNL1       -0.1044
     20 N          63.5052   91.3539    9.9843 N.ar    1  UNL1       -0.0447
     21 C          60.4714   89.7887   10.0869 C.3     1  UNL1        0.0286
     22 C          59.6153   90.5475   11.0572 C.3     1  UNL1        0.0024
     23 C          59.9597   89.4914    8.7085 C.3     1  UNL1        0.0024
@<TRIPOS>BOND
     1    11    12    1
     2    12     1    1
     3     1     2   ar
     4     2     3   ar
     5     3     4   ar
     6     4     5   ar
     7     5     6   ar
     8     6    15    1
     9    15    21    1
    10    21    22    1
    11    21    23    1
    12    15    16    1
    13    16    17   ar
    14    17    18   ar
    15    18    19   ar
    16    19    20   ar
    17     6     7   ar
    18     7     8   ar
    19     8     9   ar
    20     9    10   ar
    21    10    13    1
    22    13    14    1
    23    10     1   ar
    24     8     3   ar
    25    20    16   ar
