@<TRIPOS>MOLECULE
*****
 26 29 0 0 0
SMALL
GASTEIGER

@<TRIPOS>ATOM
      1 C          67.0162   92.6332   16.2925 C.3     1  UNL1        0.0722
      2 C          66.4985   92.6386   14.8847 C.ar    1  UNL1        0.1251
      3 N          66.9902   93.5109   13.7679 N.ar    1  UNL1       -0.2275
      4 C          66.1938   93.1842   12.5394 C.ar    1  UNL1        0.1326
      5 C          66.2375   93.7260   11.1414 C.ar    1  UNL1        0.1632
      6 C          65.2972   93.1936   10.1011 C.ar    1  UNL1        0.0388
      7 C          64.3134   92.1193   10.4587 C.ar    1  UNL1        0.0047
      8 C          64.2697   91.5774   11.8567 C.ar    1  UNL1        0.0193
      9 C          65.2099   92.1099   12.8970 C.ar    1  UNL1        0.0861
     10 N          65.3983   91.7727   14.3465 N.ar    1  UNL1       -0.2881
     11 C          64.6225   90.7493   15.1216 C.ar    1  UNL1        0.0953
     12 C          63.7509   91.0195   16.3122 C.ar    1  UNL1        0.0250
     13 C          63.1719   89.7132   16.7687 C.ar    1  UNL1        0.0131
     14 C          63.6855   88.6357   15.8603 C.ar    1  UNL1        0.0841
     15 S          64.5821   89.2762   14.8424 S.2     1  UNL1       -0.0648
     16 C          63.3599   87.1745   15.9534 C.2     1  UNL1        0.2519
     17 O          62.4700   86.6729   17.0519 O.2     1  UNL1       -0.2696
     18 N          63.9240   86.2148   14.9481 N.am    1  UNL1       -0.3021
     19 H          64.5080   86.5440   14.2271 H       1  UNL1        0.1497
     20 C          63.5983   84.7536   15.0413 C.3     1  UNL1        0.0720
     21 C          64.0283   83.3189   14.9585 C.3     1  UNL1        0.0213
     22 C          62.6041   83.6573   15.2855 C.3     1  UNL1        0.0213
     23 O          67.2213   94.8003   10.7838 O.3     1  UNL1       -0.4220
     24 C          67.6266   95.0003    9.3535 C.3     1  UNL1        0.5087
     25 F          67.6367   96.3789    8.7626 F       1  UNL1       -0.1550
     26 F          68.0217   93.8216    8.5141 F       1  UNL1       -0.1550
@<TRIPOS>BOND
     1     1     2    1
     2     2     3   ar
     3     3     4   ar
     4     4     5   ar
     5     5    23    1
     6    23    24    1
     7    24    25    1
     8    24    26    1
     9     5     6   ar
    10     6     7   ar
    11     7     8   ar
    12     8     9   ar
    13     9    10   ar
    14    10    11    1
    15    11    12   ar
    16    12    13   ar
    17    13    14   ar
    18    14    16    1
    19    16    17    2
    20    16    18   am
    21    18    20    1
    22    20    21    1
    23    21    22    1
    24    14    15   ar
    25    10     2   ar
    26    15    11   ar
    27     9     4   ar
    28    22    20    1
    29    18    19    1
@<TRIPOS>MOLECULE
*****
 26 29 0 0 0
SMALL
GASTEIGER

@<TRIPOS>ATOM
      1 C          61.6043   87.3267   10.0721 C.3     1  UNL1        0.0722
      2 C          62.1671   86.4696   11.1669 C.ar    1  UNL1        0.1251
      3 N          62.0252   84.9808   11.2822 N.ar    1  UNL1       -0.2275
      4 C          62.7410   84.5418   12.5252 C.ar    1  UNL1        0.1326
      5 C          62.9362   83.1907   13.1468 C.ar    1  UNL1        0.1632
      6 C          63.7157   83.0572   14.4214 C.ar    1  UNL1        0.0388
      7 C          64.2999   84.2747   15.0743 C.ar    1  UNL1        0.0047
      8 C          64.1046   85.6258   14.4527 C.ar    1  UNL1        0.0193
      9 C          63.3252   85.7593   13.1781 C.ar    1  UNL1        0.0861
     10 N          62.9705   86.9507   12.3386 N.ar    1  UNL1       -0.2881
     11 C          63.3522   88.3735   12.6213 C.ar    1  UNL1        0.0953
     12 C          62.9008   89.5776   11.8490 C.ar    1  UNL1        0.0250
     13 C          63.5220   90.7903   12.4763 C.ar    1  UNL1        0.0131
     14 C          64.3573   90.3358   13.6363 C.ar    1  UNL1        0.0841
     15 S          64.2523   88.8421   13.7259 S.2     1  UNL1       -0.0648
     16 C          65.1570   91.2196   14.5468 C.2     1  UNL1        0.2519
     17 O          64.4828   91.9360   15.6793 O.2     1  UNL1       -0.2696
     18 N          66.6310   91.3873   14.3249 N.am    1  UNL1       -0.3021
     19 H          67.0735   90.9172   13.5817 H       1  UNL1        0.1497
     20 C          67.4308   92.2712   15.2355 C.3     1  UNL1        0.0720
     21 C          68.3906   92.4314   16.3769 C.3     1  UNL1        0.0213
     22 C          67.8561   93.6421   15.6711 C.3     1  UNL1        0.0213
     23 O          62.3520   81.9732   12.4939 O.3     1  UNL1       -0.4220
     24 C          61.8131   80.8557   13.3369 C.3     1  UNL1        0.5087
     25 F          60.7868   81.1407   14.3931 F       1  UNL1       -0.1550
     26 F          62.3004   79.4531   13.1237 F       1  UNL1       -0.1550
@<TRIPOS>BOND
     1     1     2    1
     2     2     3   ar
     3     3     4   ar
     4     4     5   ar
     5     5    23    1
     6    23    24    1
     7    24    25    1
     8    24    26    1
     9     5     6   ar
    10     6     7   ar
    11     7     8   ar
    12     8     9   ar
    13     9    10   ar
    14    10    11    1
    15    11    12   ar
    16    12    13   ar
    17    13    14   ar
    18    14    16    1
    19    16    17    2
    20    16    18   am
    21    18    20    1
    22    20    21    1
    23    21    22    1
    24    14    15   ar
    25    10     2   ar
    26    15    11   ar
    27     9     4   ar
    28    22    20    1
    29    18    19    1
@<TRIPOS>MOLECULE
*****
 26 29 0 0 0
SMALL
GASTEIGER

@<TRIPOS>ATOM
      1 C          63.4978   89.5460   15.7547 C.3     1  UNL1        0.0722
      2 C          64.1225   90.4846   14.7654 C.ar    1  UNL1        0.1251
      3 N          65.0067   91.6511   15.0935 N.ar    1  UNL1       -0.2275
      4 C          65.4033   92.3089   13.8052 C.ar    1  UNL1        0.1326
      5 C          66.2638   93.5017   13.5106 C.ar    1  UNL1        0.1632
      6 C          66.4853   93.9346   12.0916 C.ar    1  UNL1        0.0388
      7 C          65.8463   93.1747   10.9672 C.ar    1  UNL1        0.0047
      8 C          64.9858   91.9820   11.2618 C.ar    1  UNL1        0.0193
      9 C          64.7643   91.5491   12.6808 C.ar    1  UNL1        0.0861
     10 N          63.9728   90.4216   13.2742 N.ar    1  UNL1       -0.2881
     11 C          63.1720   89.4089   12.5106 C.ar    1  UNL1        0.0953
     12 C          62.0085   89.7018   11.6104 C.ar    1  UNL1        0.0250
     13 C          61.5115   88.3994   11.0564 C.ar    1  UNL1        0.0131
     14 C          62.3679   87.3015   11.6143 C.ar    1  UNL1        0.0841
     15 S          63.3941   87.9255   12.5130 S.2     1  UNL1       -0.0648
     16 C          62.2235   85.8370   11.3244 C.2     1  UNL1        0.2519
     17 O          61.3173   85.3765   10.2212 O.2     1  UNL1       -0.2696
     18 N          62.9852   84.8327   12.1376 N.am    1  UNL1       -0.3021
     19 H          63.5799   85.1349   12.8616 H       1  UNL1        0.1497
     20 C          62.8407   83.3681   11.8476 C.3     1  UNL1        0.0720
     21 C          62.3392   82.0097   12.2389 C.3     1  UNL1        0.0213
     22 C          63.0920   82.1898   10.9541 C.3     1  UNL1        0.0213
     23 O          66.9028   94.2616   14.6350 O.3     1  UNL1       -0.4220
     24 C          68.0207   93.6413   15.4194 C.3     1  UNL1        0.5087
     25 F          68.9550   94.5096   16.2088 F       1  UNL1       -0.1550
     26 F          68.2044   92.1525   15.4145 F       1  UNL1       -0.1550
@<TRIPOS>BOND
     1     1     2    1
     2     2     3   ar
     3     3     4   ar
     4     4     5   ar
     5     5    23    1
     6    23    24    1
     7    24    25    1
     8    24    26    1
     9     5     6   ar
    10     6     7   ar
    11     7     8   ar
    12     8     9   ar
    13     9    10   ar
    14    10    11    1
    15    11    12   ar
    16    12    13   ar
    17    13    14   ar
    18    14    16    1
    19    16    17    2
    20    16    18   am
    21    18    20    1
    22    20    21    1
    23    21    22    1
    24    14    15   ar
    25    10     2   ar
    26    15    11   ar
    27     9     4   ar
    28    22    20    1
    29    18    19    1
@<TRIPOS>MOLECULE
*****
 26 29 0 0 0
SMALL
GASTEIGER

@<TRIPOS>ATOM
      1 C          62.3089   89.3244   10.8381 C.3     1  UNL1        0.0722
      2 C          62.7833   88.2390   11.7584 C.ar    1  UNL1        0.1251
      3 N          62.4688   86.7776   11.6340 N.ar    1  UNL1       -0.2275
      4 C          63.1466   86.0599   12.7634 C.ar    1  UNL1        0.1326
      5 C          63.1907   84.6110   13.1491 C.ar    1  UNL1        0.1632
      6 C          63.9682   84.1800   14.3573 C.ar    1  UNL1        0.0388
      7 C          64.7015   85.1978   15.1797 C.ar    1  UNL1        0.0047
      8 C          64.6574   86.6466   14.7939 C.ar    1  UNL1        0.0193
      9 C          63.8799   87.0777   13.5857 C.ar    1  UNL1        0.0861
     10 N          63.6554   88.4244   12.9646 N.ar    1  UNL1       -0.2881
     11 C          64.2063   89.7278   13.4624 C.ar    1  UNL1        0.0953
     12 C          64.3705   90.1241   14.8997 C.ar    1  UNL1        0.0250
     13 C          64.9554   91.5049   14.9359 C.ar    1  UNL1        0.0131
     14 C          65.1526   91.9620   13.5209 C.ar    1  UNL1        0.0841
     15 S          64.6896   90.8636   12.6103 S.2     1  UNL1       -0.0648
     16 C          65.7142   93.2850   13.0919 C.2     1  UNL1        0.2519
     17 O          66.4467   94.1446   14.0792 O.2     1  UNL1       -0.2696
     18 N          65.5433   93.7487   11.6757 N.am    1  UNL1       -0.3021
     19 H          65.0626   93.1846   11.0277 H       1  UNL1        0.1497
     20 C          66.1050   95.0718   11.2467 C.3     1  UNL1        0.0720
     21 C          66.9606   95.8798   10.3168 C.3     1  UNL1        0.0213
     22 C          66.2220   96.5555   11.4337 C.3     1  UNL1        0.0213
     23 O          62.4574   83.5932   12.3268 O.3     1  UNL1       -0.4220
     24 C          63.2187   82.6708   11.4216 C.3     1  UNL1        0.5087
     25 F          64.3496   83.2001   10.5904 F       1  UNL1       -0.1550
     26 F          62.8491   81.2189   11.3474 F       1  UNL1       -0.1550
@<TRIPOS>BOND
     1     1     2    1
     2     2     3   ar
     3     3     4   ar
     4     4     5   ar
     5     5    23    1
     6    23    24    1
     7    24    25    1
     8    24    26    1
     9     5     6   ar
    10     6     7   ar
    11     7     8   ar
    12     8     9   ar
    13     9    10   ar
    14    10    11    1
    15    11    12   ar
    16    12    13   ar
    17    13    14   ar
    18    14    16    1
    19    16    17    2
    20    16    18   am
    21    18    20    1
    22    20    21    1
    23    21    22    1
    24    14    15   ar
    25    10     2   ar
    26    15    11   ar
    27     9     4   ar
    28    22    20    1
    29    18    19    1
@<TRIPOS>MOLECULE
*****
 26 29 0 0 0
SMALL
GASTEIGER

@<TRIPOS>ATOM
      1 C          62.6235   89.9162   11.6341 C.3     1  UNL1        0.0722
      2 C          63.7072   90.6468   12.3701 C.ar    1  UNL1        0.1251
      3 N          64.2924   91.9740   11.9879 N.ar    1  UNL1       -0.2275
      4 C          65.3429   92.3260   12.9991 C.ar    1  UNL1        0.1326
      5 C          66.2493   93.5136   13.1328 C.ar    1  UNL1        0.1632
      6 C          67.2199   93.5915   14.2738 C.ar    1  UNL1        0.0388
      7 C          67.2840   92.4818   15.2810 C.ar    1  UNL1        0.0047
      8 C          66.3775   91.2943   15.1473 C.ar    1  UNL1        0.0193
      9 C          65.4070   91.2164   14.0063 C.ar    1  UNL1        0.0861
     10 N          64.3961   90.1786   13.6176 N.ar    1  UNL1       -0.2881
     11 C          64.1222   88.8974   14.3481 C.ar    1  UNL1        0.0953
     12 C          63.7460   88.7704   15.7946 C.ar    1  UNL1        0.0250
     13 C          63.5677   87.3129   16.1009 C.ar    1  UNL1        0.0131
     14 C          63.8336   86.5390   14.8437 C.ar    1  UNL1        0.0841
     15 S          64.1763   87.5185   13.7605 S.2     1  UNL1       -0.0648
     16 C          63.7683   85.0479   14.6958 C.2     1  UNL1        0.2519
     17 O          65.0008   84.2187   14.9050 O.2     1  UNL1       -0.2696
     18 N          62.4707   84.3857   14.3386 N.am    1  UNL1       -0.3021
     19 H          61.6618   84.9299   14.2013 H       1  UNL1        0.1497
     20 C          62.4054   82.8944   14.1907 C.3     1  UNL1        0.0720
     21 C          61.6383   81.6103   14.3021 C.3     1  UNL1        0.0213
     22 C          63.0596   81.5956   13.8230 C.3     1  UNL1        0.0213
     23 O          66.1852   94.6233   12.1256 O.3     1  UNL1       -0.4220
     24 C          66.7274   94.4134   10.7429 C.3     1  UNL1        0.5087
     25 F          67.1663   95.5901    9.9227 F       1  UNL1       -0.1550
     26 F          66.8308   93.0266   10.1803 F       1  UNL1       -0.1550
@<TRIPOS>BOND
     1     1     2    1
     2     2     3   ar
     3     3     4   ar
     4     4     5   ar
     5     5    23    1
     6    23    24    1
     7    24    25    1
     8    24    26    1
     9     5     6   ar
    10     6     7   ar
    11     7     8   ar
    12     8     9   ar
    13     9    10   ar
    14    10    11    1
    15    11    12   ar
    16    12    13   ar
    17    13    14   ar
    18    14    16    1
    19    16    17    2
    20    16    18   am
    21    18    20    1
    22    20    21    1
    23    21    22    1
    24    14    15   ar
    25    10     2   ar
    26    15    11   ar
    27     9     4   ar
    28    22    20    1
    29    18    19    1
@<TRIPOS>MOLECULE
*****
 26 29 0 0 0
SMALL
GASTEIGER

@<TRIPOS>ATOM
      1 C          61.2959   86.0853    9.4046 C.3     1  UNL1        0.0722
      2 C          61.9428   85.5499   10.6476 C.ar    1  UNL1        0.1251
      3 N          62.0962   84.1021   11.0082 N.ar    1  UNL1       -0.2275
      4 C          62.7981   84.0258   12.3317 C.ar    1  UNL1        0.1326
      5 C          63.2181   82.8618   13.1794 C.ar    1  UNL1        0.1632
      6 C          63.9185   83.0986   14.4845 C.ar    1  UNL1        0.0388
      7 C          64.1990   84.4994   14.9418 C.ar    1  UNL1        0.0047
      8 C          63.7790   85.6634   14.0940 C.ar    1  UNL1        0.0193
      9 C          63.0786   85.4266   12.7890 C.ar    1  UNL1        0.0861
     10 N          62.5500   86.3685   11.7482 N.ar    1  UNL1       -0.2881
     11 C          62.6168   87.8662   11.7990 C.ar    1  UNL1        0.0953
     12 C          61.6699   88.8144   11.1250 C.ar    1  UNL1        0.0250
     13 C          62.1101   90.2128   11.4422 C.ar    1  UNL1        0.0131
     14 C          63.3292   90.1289   12.3123 C.ar    1  UNL1        0.0841
     15 S          63.6422   88.6786   12.5328 S.2     1  UNL1       -0.0648
     16 C          64.0997   91.2911   12.8648 C.2     1  UNL1        0.2519
     17 O          63.9690   91.6569   14.3137 O.2     1  UNL1       -0.2696
     18 N          65.0009   92.0877   11.9686 N.am    1  UNL1       -0.3021
     19 H          65.0867   91.8476   11.0177 H       1  UNL1        0.1497
     20 C          65.7714   93.2500   12.5212 C.3     1  UNL1        0.0720
     21 C          66.5142   93.8960   13.6529 C.3     1  UNL1        0.0213
     22 C          66.3633   94.6171   12.3465 C.3     1  UNL1        0.0213
     23 O          62.9376   81.4610   12.7221 O.3     1  UNL1       -0.4220
     24 C          62.0561   80.5666   13.5424 C.3     1  UNL1        0.5087
     25 F          62.3717   79.1048   13.6590 F       1  UNL1       -0.1550
     26 F          60.8590   81.1339   14.2461 F       1  UNL1       -0.1550
@<TRIPOS>BOND
     1     1     2    1
     2     2     3   ar
     3     3     4   ar
     4     4     5   ar
     5     5    23    1
     6    23    24    1
     7    24    25    1
     8    24    26    1
     9     5     6   ar
    10     6     7   ar
    11     7     8   ar
    12     8     9   ar
    13     9    10   ar
    14    10    11    1
    15    11    12   ar
    16    12    13   ar
    17    13    14   ar
    18    14    16    1
    19    16    17    2
    20    16    18   am
    21    18    20    1
    22    20    21    1
    23    21    22    1
    24    14    15   ar
    25    10     2   ar
    26    15    11   ar
    27     9     4   ar
    28    22    20    1
    29    18    19    1
@<TRIPOS>MOLECULE
*****
 26 29 0 0 0
SMALL
GASTEIGER

@<TRIPOS>ATOM
      1 C          63.7818   91.6651   10.1545 C.3     1  UNL1        0.0722
      2 C          63.7221   91.3046   11.6093 C.ar    1  UNL1        0.1251
      3 N          64.5220   91.9387   12.7084 N.ar    1  UNL1       -0.2275
      4 C          64.1463   91.2727   13.9988 C.ar    1  UNL1        0.1326
      5 C          64.6107   91.4833   15.4095 C.ar    1  UNL1        0.1632
      6 C          64.0429   90.6482   16.5186 C.ar    1  UNL1        0.0388
      7 C          63.0108   89.6023   16.2170 C.ar    1  UNL1        0.0047
      8 C          62.5464   89.3917   14.8064 C.ar    1  UNL1        0.0193
      9 C          63.1142   90.2268   13.6973 C.ar    1  UNL1        0.0861
     10 N          62.8521   90.2466   12.2205 N.ar    1  UNL1       -0.2881
     11 C          61.8889   89.3633   11.4842 C.ar    1  UNL1        0.0953
     12 C          60.4351   89.1826   11.8066 C.ar    1  UNL1        0.0250
     13 C          59.8581   88.2134   10.8178 C.ar    1  UNL1        0.0131
     14 C          60.9552   87.7950    9.8844 C.ar    1  UNL1        0.0841
     15 S          62.2103   88.5058   10.2963 S.2     1  UNL1       -0.0648
     16 C          60.8209   86.8346    8.7401 C.2     1  UNL1        0.2519
     17 O          59.4868   86.6297    8.0855 O.2     1  UNL1       -0.2696
     18 N          62.0205   86.0790    8.2503 N.am    1  UNL1       -0.3021
     19 H          62.8961   86.2134    8.6799 H       1  UNL1        0.1497
     20 C          61.8861   85.1186    7.1060 C.3     1  UNL1        0.0720
     21 C          61.0591   84.1511    6.3123 C.3     1  UNL1        0.0213
     22 C          62.4805   84.4225    5.9176 C.3     1  UNL1        0.0213
     23 O          65.6428   92.5292   15.7110 O.3     1  UNL1       -0.4220
     24 C          67.1009   92.2065   15.5702 C.3     1  UNL1        0.5087
     25 F          68.0158   92.3389   16.7515 F       1  UNL1       -0.1550
     26 F          67.6441   91.7515   14.2481 F       1  UNL1       -0.1550
@<TRIPOS>BOND
     1     1     2    1
     2     2     3   ar
     3     3     4   ar
     4     4     5   ar
     5     5    23    1
     6    23    24    1
     7    24    25    1
     8    24    26    1
     9     5     6   ar
    10     6     7   ar
    11     7     8   ar
    12     8     9   ar
    13     9    10   ar
    14    10    11    1
    15    11    12   ar
    16    12    13   ar
    17    13    14   ar
    18    14    16    1
    19    16    17    2
    20    16    18   am
    21    18    20    1
    22    20    21    1
    23    21    22    1
    24    14    15   ar
    25    10     2   ar
    26    15    11   ar
    27     9     4   ar
    28    22    20    1
    29    18    19    1
@<TRIPOS>MOLECULE
*****
 26 29 0 0 0
SMALL
GASTEIGER

@<TRIPOS>ATOM
      1 C          60.8173   86.9479    8.9329 C.3     1  UNL1        0.0722
      2 C          61.5320   86.3052   10.0844 C.ar    1  UNL1        0.1251
      3 N          61.6781   84.8310   10.3194 N.ar    1  UNL1       -0.2275
      4 C          62.4625   84.6385   11.5834 C.ar    1  UNL1        0.1326
      5 C          62.9121   83.4042   12.3075 C.ar    1  UNL1        0.1632
      6 C          63.7004   83.5253   13.5779 C.ar    1  UNL1        0.0388
      7 C          64.0392   84.8806   14.1241 C.ar    1  UNL1        0.0047
      8 C          63.5896   86.1149   13.4000 C.ar    1  UNL1        0.0193
      9 C          62.8013   85.9938   12.1296 C.ar    1  UNL1        0.0861
     10 N          62.2262   87.0239   11.2032 N.ar    1  UNL1       -0.2881
     11 C          62.3275   88.5115   11.3668 C.ar    1  UNL1        0.0953
     12 C          61.1773   89.4729   11.4204 C.ar    1  UNL1        0.0250
     13 C          61.7357   90.8544   11.5923 C.ar    1  UNL1        0.0131
     14 C          63.2310   90.7469   11.6449 C.ar    1  UNL1        0.0841
     15 S          63.5966   89.2988   11.5056 S.2     1  UNL1       -0.0648
     16 C          64.1917   91.8871   11.8083 C.2     1  UNL1        0.2519
     17 O          64.6608   92.2825   13.1771 O.2     1  UNL1       -0.2696
     18 N          64.6835   92.6320   10.6028 N.am    1  UNL1       -0.3021
     19 H          64.3757   92.3726    9.7044 H       1  UNL1        0.1497
     20 C          65.6443   93.7723   10.7661 C.3     1  UNL1        0.0720
     21 C          66.1121   94.9782   11.5256 C.3     1  UNL1        0.0213
     22 C          66.8407   94.5413   10.2895 C.3     1  UNL1        0.0213
     23 O          62.5734   82.0489   11.7613 O.3     1  UNL1       -0.4220
     24 C          63.3263   81.5054   10.5834 C.3     1  UNL1        0.5087
     25 F          64.4875   82.2686   10.0185 F       1  UNL1       -0.1550
     26 F          62.9181   80.1986    9.9703 F       1  UNL1       -0.1550
@<TRIPOS>BOND
     1     1     2    1
     2     2     3   ar
     3     3     4   ar
     4     4     5   ar
     5     5    23    1
     6    23    24    1
     7    24    25    1
     8    24    26    1
     9     5     6   ar
    10     6     7   ar
    11     7     8   ar
    12     8     9   ar
    13     9    10   ar
    14    10    11    1
    15    11    12   ar
    16    12    13   ar
    17    13    14   ar
    18    14    16    1
    19    16    17    2
    20    16    18   am
    21    18    20    1
    22    20    21    1
    23    21    22    1
    24    14    15   ar
    25    10     2   ar
    26    15    11   ar
    27     9     4   ar
    28    22    20    1
    29    18    19    1
@<TRIPOS>MOLECULE
*****
 26 29 0 0 0
SMALL
GASTEIGER

@<TRIPOS>ATOM
      1 C          61.6810   86.5593   10.0734 C.3     1  UNL1        0.0722
      2 C          62.3781   87.3666   11.1281 C.ar    1  UNL1        0.1251
      3 N          62.5761   88.8534   11.1131 N.ar    1  UNL1       -0.2275
      4 C          63.3200   89.2346   12.3586 C.ar    1  UNL1        0.1326
      5 C          63.7928   90.5594   12.8795 C.ar    1  UNL1        0.1632
      6 C          64.5274   90.6329   14.1852 C.ar    1  UNL1        0.0388
      7 C          64.7892   89.3817   14.9700 C.ar    1  UNL1        0.0047
      8 C          64.3164   88.0569   14.4491 C.ar    1  UNL1        0.0193
      9 C          63.5818   87.9834   13.1434 C.ar    1  UNL1        0.0861
     10 N          62.9996   86.8289   12.3829 N.ar    1  UNL1       -0.2881
     11 C          63.0332   85.3895   12.8034 C.ar    1  UNL1        0.0953
     12 C          63.3015   84.8818   14.1891 C.ar    1  UNL1        0.0250
     13 C          63.2385   83.3835   14.1542 C.ar    1  UNL1        0.0131
     14 C          62.9312   82.9652   12.7468 C.ar    1  UNL1        0.0841
     15 S          62.8043   84.2050   11.9121 S.2     1  UNL1       -0.0648
     16 C          62.7777   81.5548   12.2599 C.2     1  UNL1        0.2519
     17 O          62.2996   80.4855   13.1970 O.2     1  UNL1       -0.2696
     18 N          63.1023   81.2136   10.8357 N.am    1  UNL1       -0.3021
     19 H          63.4161   81.9153   10.2206 H       1  UNL1        0.1497
     20 C          62.9489   79.8032   10.3487 C.3     1  UNL1        0.0720
     21 C          62.7348   78.3463   10.6344 C.3     1  UNL1        0.0213
     22 C          62.8971   78.8171    9.2196 C.3     1  UNL1        0.0213
     23 O          63.5310   91.8106   12.0948 O.3     1  UNL1       -0.4220
     24 C          64.0355   91.9326   10.6874 C.3     1  UNL1        0.5087
     25 F          63.1006   91.7174    9.5343 F       1  UNL1       -0.1550
     26 F          65.4749   92.2697   10.4332 F       1  UNL1       -0.1550
@<TRIPOS>BOND
     1     1     2    1
     2     2     3   ar
     3     3     4   ar
     4     4     5   ar
     5     5    23    1
     6    23    24    1
     7    24    25    1
     8    24    26    1
     9     5     6   ar
    10     6     7   ar
    11     7     8   ar
    12     8     9   ar
    13     9    10   ar
    14    10    11    1
    15    11    12   ar
    16    12    13   ar
    17    13    14   ar
    18    14    16    1
    19    16    17    2
    20    16    18   am
    21    18    20    1
    22    20    21    1
    23    21    22    1
    24    14    15   ar
    25    10     2   ar
    26    15    11   ar
    27     9     4   ar
    28    22    20    1
    29    18    19    1
