@<TRIPOS>MOLECULE
*****
 24 26 0 0 0
SMALL
GASTEIGER

@<TRIPOS>ATOM
      1 C          64.6496   88.4305   14.5428 C.3     1  UNL1        0.0518
      2 C          63.8595   87.6456   13.5379 C.ar    1  UNL1        0.0568
      3 N          63.1870   88.3499   12.3970 N.ar    1  UNL1       -0.2456
      4 C          62.3969   87.5651   11.3922 C.ar    1  UNL1        0.1319
      5 C          62.2792   86.0759   11.5282 C.ar    1  UNL1        0.0196
      6 C          62.9517   85.3716   12.6691 C.ar    1  UNL1       -0.0015
      7 C          63.7419   86.1565   13.6740 C.ar    1  UNL1        0.0068
      8 C          61.4398   85.5715   10.3921 C.3     1  UNL1        0.1222
      9 N          61.0386   86.7490    9.5538 N.am    1  UNL1       -0.2689
     10 C          60.1942   86.7025    8.3150 C.3     1  UNL1        0.1155
     11 C          61.6301   87.9811   10.1719 C.2     1  UNL1        0.2668
     12 O          61.4811   89.3830    9.6597 O.2     1  UNL1       -0.2683
     13 C          62.8341   83.8824   12.8052 C.ar    1  UNL1        0.0102
     14 C          62.0505   83.2926   13.9402 C.ar    1  UNL1        0.0017
     15 C          61.9329   81.8034   14.0764 C.ar    1  UNL1        0.0114
     16 C          62.5988   80.9041   13.0776 C.ar    1  UNL1        0.0585
     17 CL         62.4811   79.4149   13.2138 Cl      1  UNL1       -0.0822
     18 C          63.3823   81.4939   11.9426 C.ar    1  UNL1        0.0228
     19 C          63.5000   82.9830   11.8064 C.ar    1  UNL1        0.0585
     20 CL         64.2836   83.5728   10.6714 Cl      1  UNL1       -0.0822
     21 C          64.4144   85.4521   14.8149 C.3     1  UNL1        0.0934
     22 N          65.7036   84.7196   14.5888 N.3     1  UNL1       -0.3174
     23 H          65.5393   83.9250   13.9707 H       1  UNL1        0.1192
     24 H          66.0665   84.3863   15.4819 H       1  UNL1        0.1192
@<TRIPOS>BOND
     1     1     2    1
     2     2     3   ar
     3     3     4   ar
     4     4     5   ar
     5     5     6   ar
     6     6    13    1
     7    13    14   ar
     8    14    15   ar
     9    15    16   ar
    10    16    17    1
    11    16    18   ar
    12    18    19   ar
    13    19    20    1
    14     6     7   ar
    15     7    21    1
    16    21    22    1
    17     5     8    1
    18     8     9    1
    19     9    10    1
    20     9    11   am
    21    11    12    2
    22     7     2   ar
    23    11     4    1
    24    19    13   ar
    25    22    23    1
    26    22    24    1
@<TRIPOS>MOLECULE
*****
 24 26 0 0 0
SMALL
GASTEIGER

@<TRIPOS>ATOM
      1 C          65.8713   91.6022   15.6953 C.3     1  UNL1        0.0518
      2 C          65.3496   91.6572   14.2900 C.ar    1  UNL1        0.0568
      3 N          64.2452   90.7362   13.8634 N.ar    1  UNL1       -0.2456
      4 C          63.7234   90.7911   12.4582 C.ar    1  UNL1        0.1319
      5 C          64.3062   91.7671   11.4794 C.ar    1  UNL1        0.0196
      6 C          65.4107   92.6881   11.9059 C.ar    1  UNL1       -0.0015
      7 C          65.9323   92.6331   13.3113 C.ar    1  UNL1        0.0068
      8 C          63.5934   91.5931   10.1711 C.3     1  UNL1        0.1222
      9 N          62.5701   90.5097   10.3413 N.am    1  UNL1       -0.2689
     10 C          61.6312   90.0097    9.2837 C.3     1  UNL1        0.1155
     11 C          62.6504   90.0140   11.7548 C.2     1  UNL1        0.2668
     12 O          61.8061   88.9313   12.3588 O.2     1  UNL1       -0.2683
     13 C          65.9935   93.6641   10.9272 C.ar    1  UNL1        0.0102
     14 C          65.4070   95.0387   10.7994 C.ar    1  UNL1        0.0017
     15 C          65.9897   96.0147    9.8208 C.ar    1  UNL1        0.0114
     16 C          67.1589   95.6160    8.9699 C.ar    1  UNL1        0.0585
     17 CL         67.7417   96.5921    7.9913 Cl      1  UNL1       -0.0822
     18 C          67.7454   94.2414    9.0977 C.ar    1  UNL1        0.0228
     19 C          67.1627   93.2653   10.0764 C.ar    1  UNL1        0.0585
     20 CL         67.7492   91.8907   10.2042 Cl      1  UNL1       -0.0822
     21 C          67.0369   93.5541   13.7378 C.3     1  UNL1        0.0934
     22 N          68.3467   92.9897   14.2023 N.3     1  UNL1       -0.3174
     23 H          68.2064   92.4768   15.0727 H       1  UNL1        0.1192
     24 H          69.0083   93.7501   14.3586 H       1  UNL1        0.1192
@<TRIPOS>BOND
     1     1     2    1
     2     2     3   ar
     3     3     4   ar
     4     4     5   ar
     5     5     6   ar
     6     6    13    1
     7    13    14   ar
     8    14    15   ar
     9    15    16   ar
    10    16    17    1
    11    16    18   ar
    12    18    19   ar
    13    19    20    1
    14     6     7   ar
    15     7    21    1
    16    21    22    1
    17     5     8    1
    18     8     9    1
    19     9    10    1
    20     9    11   am
    21    11    12    2
    22     7     2   ar
    23    11     4    1
    24    19    13   ar
    25    22    23    1
    26    22    24    1
@<TRIPOS>MOLECULE
*****
 24 26 0 0 0
SMALL
GASTEIGER

@<TRIPOS>ATOM
      1 C          64.6211   88.5620   14.5741 C.3     1  UNL1        0.0518
      2 C          64.0183   87.3550   13.9184 C.ar    1  UNL1        0.0568
      3 N          64.2263   85.9948   14.5155 N.ar    1  UNL1       -0.2456
      4 C          63.6236   84.7878   13.8598 C.ar    1  UNL1        0.1319
      5 C          62.8130   84.9410   12.6071 C.ar    1  UNL1        0.0196
      6 C          62.6050   86.3012   12.0100 C.ar    1  UNL1       -0.0015
      7 C          63.2077   87.5082   12.6657 C.ar    1  UNL1        0.0068
      8 C          62.3457   83.5787   12.1878 C.3     1  UNL1        0.1222
      9 N          62.8676   82.5836   13.1814 N.am    1  UNL1       -0.2689
     10 C          62.6397   81.1013   13.1476 C.3     1  UNL1        0.1155
     11 C          63.6574   83.3308   14.2148 C.2     1  UNL1        0.2668
     12 O          64.3580   82.7270   15.3957 O.2     1  UNL1       -0.2683
     13 C          61.7943   86.4545   10.7573 C.ar    1  UNL1        0.0102
     14 C          60.5497   87.2917   10.7672 C.ar    1  UNL1        0.0017
     15 C          59.7389   87.4450    9.5145 C.ar    1  UNL1        0.0114
     16 C          60.1729   86.7612    8.2520 C.ar    1  UNL1        0.0585
     17 CL         59.3621   86.9145    6.9993 Cl      1  UNL1       -0.0822
     18 C          61.4174   85.9240    8.2421 C.ar    1  UNL1        0.0228
     19 C          62.2282   85.7706    9.4948 C.ar    1  UNL1        0.0585
     20 CL         63.4728   84.9335    9.4849 Cl      1  UNL1       -0.0822
     21 C          62.9997   88.8685   12.0686 C.3     1  UNL1        0.0934
     22 N          62.0317   89.8248   12.7000 N.3     1  UNL1       -0.3174
     23 H          61.0849   89.4549   12.6162 H       1  UNL1        0.1192
     24 H          62.0876   90.7268   12.2272 H       1  UNL1        0.1192
@<TRIPOS>BOND
     1     1     2    1
     2     2     3   ar
     3     3     4   ar
     4     4     5   ar
     5     5     6   ar
     6     6    13    1
     7    13    14   ar
     8    14    15   ar
     9    15    16   ar
    10    16    17    1
    11    16    18   ar
    12    18    19   ar
    13    19    20    1
    14     6     7   ar
    15     7    21    1
    16    21    22    1
    17     5     8    1
    18     8     9    1
    19     9    10    1
    20     9    11   am
    21    11    12    2
    22     7     2   ar
    23    11     4    1
    24    19    13   ar
    25    22    23    1
    26    22    24    1
@<TRIPOS>MOLECULE
*****
 24 26 0 0 0
SMALL
GASTEIGER

@<TRIPOS>ATOM
      1 C          63.2578   90.5141   12.3764 C.3     1  UNL1        0.0518
      2 C          63.1627   89.0216   12.2593 C.ar    1  UNL1        0.0568
      3 N          63.5011   88.1541   13.4352 N.ar    1  UNL1       -0.2456
      4 C          63.4060   86.6617   13.3182 C.ar    1  UNL1        0.1319
      5 C          62.9726   86.0368   12.0252 C.ar    1  UNL1        0.0196
      6 C          62.6342   86.9044   10.8493 C.ar    1  UNL1       -0.0015
      7 C          62.7293   88.3969   10.9664 C.ar    1  UNL1        0.0068
      8 C          62.9723   84.5479   12.2071 C.3     1  UNL1        0.1222
      9 N          63.4055   84.2526   13.6125 N.am    1  UNL1       -0.2689
     10 C          63.5460   82.8900   14.2238 C.3     1  UNL1        0.1155
     11 C          63.6736   85.5589   14.2992 C.2     1  UNL1        0.2668
     12 O          64.1292   85.7321   15.7178 O.2     1  UNL1       -0.2683
     13 C          62.2008   86.2796    9.5563 C.ar    1  UNL1        0.0102
     14 C          63.1959   85.5455    8.7074 C.ar    1  UNL1        0.0017
     15 C          62.7626   84.9207    7.4144 C.ar    1  UNL1        0.0114
     16 C          61.3340   85.0301    6.9704 C.ar    1  UNL1        0.0585
     17 CL         60.9007   84.4053    5.6774 Cl      1  UNL1       -0.0822
     18 C          60.3389   85.7642    7.8193 C.ar    1  UNL1        0.0228
     19 C          60.7722   86.3890    9.1123 C.ar    1  UNL1        0.0585
     20 CL         59.7770   87.1232    9.9611 Cl      1  UNL1       -0.0822
     21 C          62.3909   89.2645    9.7904 C.3     1  UNL1        0.0934
     22 N          61.1518   90.1096    9.8138 N.3     1  UNL1       -0.3174
     23 H          60.3292   89.5066    9.8234 H       1  UNL1        0.1192
     24 H          61.1290   90.7026    8.9842 H       1  UNL1        0.1192
@<TRIPOS>BOND
     1     1     2    1
     2     2     3   ar
     3     3     4   ar
     4     4     5   ar
     5     5     6   ar
     6     6    13    1
     7    13    14   ar
     8    14    15   ar
     9    15    16   ar
    10    16    17    1
    11    16    18   ar
    12    18    19   ar
    13    19    20    1
    14     6     7   ar
    15     7    21    1
    16    21    22    1
    17     5     8    1
    18     8     9    1
    19     9    10    1
    20     9    11   am
    21    11    12    2
    22     7     2   ar
    23    11     4    1
    24    19    13   ar
    25    22    23    1
    26    22    24    1
@<TRIPOS>MOLECULE
*****
 24 26 0 0 0
SMALL
GASTEIGER

@<TRIPOS>ATOM
      1 C          63.8879   84.3311   15.2087 C.3     1  UNL1        0.0518
      2 C          63.6761   85.4700   14.2558 C.ar    1  UNL1        0.0568
      3 N          64.0212   86.8694   14.6712 N.ar    1  UNL1       -0.2456
      4 C          63.8095   88.0084   13.7184 C.ar    1  UNL1        0.1319
      5 C          63.2527   87.7480   12.3501 C.ar    1  UNL1        0.0196
      6 C          62.9076   86.3486   11.9347 C.ar    1  UNL1       -0.0015
      7 C          63.1194   85.2096   12.8876 C.ar    1  UNL1        0.0068
      8 C          63.1539   89.0613   11.6321 C.3     1  UNL1        0.1222
      9 N          63.6496   90.1334   12.5567 N.am    1  UNL1       -0.2689
     10 C          63.7265   91.5989   12.2465 C.3     1  UNL1        0.1155
     11 C          64.0548   89.4827   13.8461 C.2     1  UNL1        0.2668
     12 O          64.6081   90.1833   15.0515 O.2     1  UNL1       -0.2683
     13 C          62.3508   86.0881   10.5664 C.ar    1  UNL1        0.0102
     14 C          63.1486   85.3008    9.5695 C.ar    1  UNL1        0.0017
     15 C          62.5919   85.0403    8.2012 C.ar    1  UNL1        0.0114
     16 C          61.2374   85.5669    7.8299 C.ar    1  UNL1        0.0585
     17 CL         60.6807   85.3064    6.4616 Cl      1  UNL1       -0.0822
     18 C          60.4396   86.3542    8.8268 C.ar    1  UNL1        0.0228
     19 C          60.9963   86.6147   10.1951 C.ar    1  UNL1        0.0585
     20 CL         60.1986   87.4019   11.1920 Cl      1  UNL1       -0.0822
     21 C          62.7743   83.8101   12.4721 C.3     1  UNL1        0.0934
     22 N          63.8572   82.8693   12.0337 N.3     1  UNL1       -0.3174
     23 H          64.2708   83.2082   11.1650 H       1  UNL1        0.1192
     24 H          63.4610   81.9417   11.8824 H       1  UNL1        0.1192
@<TRIPOS>BOND
     1     1     2    1
     2     2     3   ar
     3     3     4   ar
     4     4     5   ar
     5     5     6   ar
     6     6    13    1
     7    13    14   ar
     8    14    15   ar
     9    15    16   ar
    10    16    17    1
    11    16    18   ar
    12    18    19   ar
    13    19    20    1
    14     6     7   ar
    15     7    21    1
    16    21    22    1
    17     5     8    1
    18     8     9    1
    19     9    10    1
    20     9    11   am
    21    11    12    2
    22     7     2   ar
    23    11     4    1
    24    19    13   ar
    25    22    23    1
    26    22    24    1
@<TRIPOS>MOLECULE
*****
 24 26 0 0 0
SMALL
GASTEIGER

@<TRIPOS>ATOM
      1 C          61.0491   89.1009    9.6451 C.3     1  UNL1        0.0518
      2 C          61.8854   88.6199   10.7938 C.ar    1  UNL1        0.0568
      3 N          61.9701   87.1534   11.0974 N.ar    1  UNL1       -0.2456
      4 C          62.8063   86.6724   12.2460 C.ar    1  UNL1        0.1319
      5 C          63.5579   87.6579   13.0910 C.ar    1  UNL1        0.0196
      6 C          63.4732   89.1244   12.7874 C.ar    1  UNL1       -0.0015
      7 C          62.6369   89.6053   11.6387 C.ar    1  UNL1        0.0068
      8 C          64.2959   86.8931   14.1495 C.3     1  UNL1        0.1222
      9 N          64.0004   85.4349   13.9588 N.am    1  UNL1       -0.2689
     10 C          64.5321   84.3105   14.7972 C.3     1  UNL1        0.1155
     11 C          63.0798   85.2985   12.7824 C.2     1  UNL1        0.2668
     12 O          62.5293   84.0138   12.2379 O.2     1  UNL1       -0.2683
     13 C          64.2248   90.1099   13.6323 C.ar    1  UNL1        0.0102
     14 C          65.3835   90.8653   13.0519 C.ar    1  UNL1        0.0017
     15 C          66.1352   91.8508   13.8967 C.ar    1  UNL1        0.0114
     16 C          65.7280   92.0810   15.3219 C.ar    1  UNL1        0.0585
     17 CL         66.4796   93.0666   16.1667 Cl      1  UNL1       -0.0822
     18 C          64.5693   91.3257   15.9023 C.ar    1  UNL1        0.0228
     19 C          63.8177   90.3401   15.0575 C.ar    1  UNL1        0.0585
     20 CL         62.6589   89.5848   15.6378 Cl      1  UNL1       -0.0822
     21 C          62.5522   91.0719   11.3350 C.3     1  UNL1        0.0934
     22 N          63.2292   91.6258   10.1165 N.3     1  UNL1       -0.3174
     23 H          64.2398   91.5302   10.2160 H       1  UNL1        0.1192
     24 H          62.9895   92.6119   10.0130 H       1  UNL1        0.1192
@<TRIPOS>BOND
     1     1     2    1
     2     2     3   ar
     3     3     4   ar
     4     4     5   ar
     5     5     6   ar
     6     6    13    1
     7    13    14   ar
     8    14    15   ar
     9    15    16   ar
    10    16    17    1
    11    16    18   ar
    12    18    19   ar
    13    19    20    1
    14     6     7   ar
    15     7    21    1
    16    21    22    1
    17     5     8    1
    18     8     9    1
    19     9    10    1
    20     9    11   am
    21    11    12    2
    22     7     2   ar
    23    11     4    1
    24    19    13   ar
    25    22    23    1
    26    22    24    1
@<TRIPOS>MOLECULE
*****
 24 26 0 0 0
SMALL
GASTEIGER

@<TRIPOS>ATOM
      1 C          59.8063   89.1461    8.1340 C.3     1  UNL1        0.0518
      2 C          60.7434   88.7782    9.2461 C.ar    1  UNL1        0.0568
      3 N          61.2980   89.8449   10.1431 N.ar    1  UNL1       -0.2456
      4 C          62.2350   89.4770   11.2552 C.ar    1  UNL1        0.1319
      5 C          62.6173   88.0426   11.4703 C.ar    1  UNL1        0.0196
      6 C          62.0626   86.9760   10.5733 C.ar    1  UNL1       -0.0015
      7 C          61.1256   87.3439    9.4612 C.ar    1  UNL1        0.0068
      8 C          63.5545   87.9830   12.6400 C.3     1  UNL1        0.1222
      9 N          63.7514   89.3806   13.1478 N.am    1  UNL1       -0.2689
     10 C          64.6126   89.7841   14.3077 C.3     1  UNL1        0.1155
     11 C          62.9359   90.3040   12.2920 C.2     1  UNL1        0.2668
     12 O          62.8385   91.7929   12.4459 O.2     1  UNL1       -0.2683
     13 C          62.4449   85.5415   10.7883 C.ar    1  UNL1        0.0102
     14 C          62.1149   84.8638   12.0851 C.ar    1  UNL1        0.0017
     15 C          62.4971   83.4293   12.3003 C.ar    1  UNL1        0.0114
     16 C          63.2093   82.6727   11.2185 C.ar    1  UNL1        0.0585
     17 CL         63.5915   81.2382   11.4336 Cl      1  UNL1       -0.0822
     18 C          63.5393   83.3504    9.9217 C.ar    1  UNL1        0.0228
     19 C          63.1571   84.7849    9.7066 C.ar    1  UNL1        0.0585
     20 CL         63.4870   85.4626    8.4097 Cl      1  UNL1       -0.0822
     21 C          60.5709   86.2772    8.5641 C.3     1  UNL1        0.0934
     22 N          59.1456   86.3517    8.1027 N.3     1  UNL1       -0.3174
     23 H          58.5229   86.2424    8.9032 H       1  UNL1        0.1192
     24 H          58.9670   85.6072    7.4288 H       1  UNL1        0.1192
@<TRIPOS>BOND
     1     1     2    1
     2     2     3   ar
     3     3     4   ar
     4     4     5   ar
     5     5     6   ar
     6     6    13    1
     7    13    14   ar
     8    14    15   ar
     9    15    16   ar
    10    16    17    1
    11    16    18   ar
    12    18    19   ar
    13    19    20    1
    14     6     7   ar
    15     7    21    1
    16    21    22    1
    17     5     8    1
    18     8     9    1
    19     9    10    1
    20     9    11   am
    21    11    12    2
    22     7     2   ar
    23    11     4    1
    24    19    13   ar
    25    22    23    1
    26    22    24    1
@<TRIPOS>MOLECULE
*****
 24 26 0 0 0
SMALL
GASTEIGER

@<TRIPOS>ATOM
      1 C          64.6233   82.0828    9.9976 C.3     1  UNL1        0.0518
      2 C          63.8618   83.2902   10.4587 C.ar    1  UNL1        0.0568
      3 N          63.0832   84.1079    9.4713 N.ar    1  UNL1       -0.2456
      4 C          62.3217   85.3152    9.9323 C.ar    1  UNL1        0.1319
      5 C          62.3389   85.7048   11.3807 C.ar    1  UNL1        0.0196
      6 C          63.1176   84.8871   12.3681 C.ar    1  UNL1       -0.0015
      7 C          63.8791   83.6797   11.9071 C.ar    1  UNL1        0.0068
      8 C          61.4986   86.9372   11.5393 C.3     1  UNL1        0.1222
      9 N          60.9620   87.3092   10.1889 N.am    1  UNL1       -0.2689
     10 C          60.0728   88.4783    9.8849 C.3     1  UNL1        0.1155
     11 C          61.4707   86.3067    9.1957 C.2     1  UNL1        0.2668
     12 O          61.1795   86.2975    7.7243 O.2     1  UNL1       -0.2683
     13 C          63.1349   85.2767   13.8166 C.ar    1  UNL1        0.0102
     14 C          63.9247   86.4714   14.2625 C.ar    1  UNL1        0.0017
     15 C          63.9421   86.8611   15.7109 C.ar    1  UNL1        0.0114
     16 C          63.1696   86.0559   16.7134 C.ar    1  UNL1        0.0585
     17 CL         63.1869   86.4456   18.1618 Cl      1  UNL1       -0.0822
     18 C          62.3798   84.8612   16.2675 C.ar    1  UNL1        0.0228
     19 C          62.3624   84.4716   14.8191 C.ar    1  UNL1        0.0585
     20 CL         61.5726   83.2768   14.3732 Cl      1  UNL1       -0.0822
     21 C          64.6578   82.8620   12.8945 C.3     1  UNL1        0.0934
     22 N          64.1579   81.5096   13.3081 N.3     1  UNL1       -0.3174
     23 H          63.2840   81.6132   13.8238 H       1  UNL1        0.1192
     24 H          64.8523   81.0578   13.9031 H       1  UNL1        0.1192
@<TRIPOS>BOND
     1     1     2    1
     2     2     3   ar
     3     3     4   ar
     4     4     5   ar
     5     5     6   ar
     6     6    13    1
     7    13    14   ar
     8    14    15   ar
     9    15    16   ar
    10    16    17    1
    11    16    18   ar
    12    18    19   ar
    13    19    20    1
    14     6     7   ar
    15     7    21    1
    16    21    22    1
    17     5     8    1
    18     8     9    1
    19     9    10    1
    20     9    11   am
    21    11    12    2
    22     7     2   ar
    23    11     4    1
    24    19    13   ar
    25    22    23    1
    26    22    24    1
@<TRIPOS>MOLECULE
*****
 24 26 0 0 0
SMALL
GASTEIGER

@<TRIPOS>ATOM
      1 C          62.5948   92.3162    2.3606 C.3     1  UNL1        0.0518
      2 C          62.0912   92.7487    1.0154 C.ar    1  UNL1        0.0568
      3 N          60.6775   92.4503    0.6125 N.ar    1  UNL1       -0.2456
      4 C          60.1738   92.8828   -0.7326 C.ar    1  UNL1        0.1319
      5 C          61.0838   93.6137   -1.6748 C.ar    1  UNL1        0.0196
      6 C          62.4975   93.9121   -1.2718 C.ar    1  UNL1       -0.0015
      7 C          63.0011   93.4796    0.0733 C.ar    1  UNL1        0.0068
      8 C          60.3122   93.9132   -2.9257 C.3     1  UNL1        0.1222
      9 N          58.9253   93.3674   -2.7567 N.am    1  UNL1       -0.2689
     10 C          57.8183   93.4448   -3.7660 C.3     1  UNL1        0.1155
     11 C          58.8398   92.7306   -1.4013 C.2     1  UNL1        0.2668
     12 O          57.6322   92.0593   -0.8172 O.2     1  UNL1       -0.2683
     13 C          63.4076   94.6431   -2.2139 C.ar    1  UNL1        0.0102
     14 C          63.6340   96.1164   -2.0462 C.ar    1  UNL1        0.0017
     15 C          64.5441   96.8474   -2.9882 C.ar    1  UNL1        0.0114
     16 C          65.2277   96.1050   -4.0979 C.ar    1  UNL1        0.0585
     17 CL         66.1378   96.8360   -5.0400 Cl      1  UNL1       -0.0822
     18 C          65.0013   94.6317   -4.2656 C.ar    1  UNL1        0.0228
     19 C          64.0912   93.9007   -3.3236 C.ar    1  UNL1        0.0585
     20 CL         63.8649   92.4274   -3.4913 Cl      1  UNL1       -0.0822
     21 C          64.4149   93.7780    0.4763 C.3     1  UNL1        0.0934
     22 N          65.4771   92.7310    0.3171 N.3     1  UNL1       -0.3174
     23 H          65.2820   91.9506    0.9442 H       1  UNL1        0.1192
     24 H          66.3867   93.1318    0.5459 H       1  UNL1        0.1192
@<TRIPOS>BOND
     1     1     2    1
     2     2     3   ar
     3     3     4   ar
     4     4     5   ar
     5     5     6   ar
     6     6    13    1
     7    13    14   ar
     8    14    15   ar
     9    15    16   ar
    10    16    17    1
    11    16    18   ar
    12    18    19   ar
    13    19    20    1
    14     6     7   ar
    15     7    21    1
    16    21    22    1
    17     5     8    1
    18     8     9    1
    19     9    10    1
    20     9    11   am
    21    11    12    2
    22     7     2   ar
    23    11     4    1
    24    19    13   ar
    25    22    23    1
    26    22    24    1
