@<TRIPOS>MOLECULE
*****
 36 39 0 0 0
SMALL
GASTEIGER

@<TRIPOS>ATOM
      1 N          63.0482   90.9892   11.6493 N.am    1  UNL1       -0.2438
      2 C          63.5768   91.6235   10.3969 C.3     1  UNL1        0.1009
      3 C          64.7776   92.5203   10.4595 C.3     1  UNL1        0.0662
      4 C          65.4498   92.7828   11.7745 C.3     1  UNL1        0.1600
      5 O          64.9213   92.1486   13.0268 O.3     1  UNL1       -0.4374
      6 C          63.7205   91.2518   12.9643 C.2     1  UNL1        0.4051
      7 O          63.1920   90.6176   14.2166 O.2     1  UNL1       -0.2262
      8 C          66.3163   93.6077   10.8696 C.ar    1  UNL1        0.0138
      9 C          66.2900   95.1044   10.9656 C.ar    1  UNL1       -0.0010
     10 C          67.1566   95.9293   10.0607 C.ar    1  UNL1       -0.0002
     11 C          68.0493   95.2574    9.0599 C.ar    1  UNL1       -0.0000
     12 C          68.0756   93.7607    8.9640 C.ar    1  UNL1       -0.0002
     13 C          67.2091   92.9358    9.8688 C.ar    1  UNL1       -0.0010
     14 C          61.8475   90.0925   11.5867 C.3     1  UNL1        0.1011
     15 C          60.4781   90.6829   11.4246 C.3     1  UNL1        0.0265
     16 C          62.3534   85.6310   11.8852 C.ar    1  UNL1        0.0014
     17 C          63.3008   86.5432   12.6065 C.ar    1  UNL1       -0.0002
     18 C          63.1322   88.0303   12.5070 C.ar    1  UNL1       -0.0027
     19 C          62.0161   88.6054   11.6862 C.ar    1  UNL1       -0.0042
     20 C          61.0687   87.6932   10.9648 C.ar    1  UNL1       -0.0027
     21 C          61.2373   86.2060   11.0643 C.ar    1  UNL1       -0.0002
     22 C          63.8754   81.1248    9.7929 C.3     1  UNL1        0.0360
     23 C          63.2831   81.8907   10.9385 C.ar    1  UNL1        0.0343
     24 C          63.1144   83.3778   10.8391 C.ar    1  UNL1        0.0019
     25 C          62.5220   84.1438   11.9847 C.ar    1  UNL1        0.0171
     26 C          62.0984   83.4226   13.2298 C.ar    1  UNL1        0.0783
     27 N          62.2671   81.9355   13.3293 N.ar    1  UNL1       -0.2924
     28 C          61.8434   81.2142   14.5744 C.3     1  UNL1        0.1336
     29 C          62.8594   81.1695   12.1836 C.ar    1  UNL1        0.2569
     30 O          63.0281   79.6823   12.2832 O.2     1  UNL1       -0.2673
     31 C          66.4230   93.3318   12.7752 C.3     1  UNL1        0.0714
     32 C          67.0587   92.4193   13.7818 C.3     1  UNL1        0.0922
     33 C          66.3441   93.1400   14.8863 C.3     1  UNL1        0.0294
     34 C          67.7733   91.6986   12.6773 C.3     1  UNL1        0.0294
     35 O          67.6944   91.5068   14.7885 O.3     1  UNL1       -0.3866
     36 H          67.3958   91.7495   15.6789 H       1  UNL1        0.2102
@<TRIPOS>BOND
     1    22    23    1
     2    23    24   ar
     3    24    25   ar
     4    25    16    1
     5    16    17   ar
     6    17    18   ar
     7    18    19   ar
     8    19    14    1
     9    14    15    1
    10    14     1    1
    11     1     2    1
    12     2     3    1
    13     3     4    1
    14     4    31    1
    15    31    32    1
    16    32    33    1
    17    32    34    1
    18    32    35    1
    19     4     8    1
    20     8     9   ar
    21     9    10   ar
    22    10    11   ar
    23    11    12   ar
    24    12    13   ar
    25     4     5    1
    26     5     6    1
    27     6     7    2
    28    19    20   ar
    29    20    21   ar
    30    25    26   ar
    31    26    27   ar
    32    27    28    1
    33    27    29   ar
    34    29    30    2
    35    29    23   ar
    36    21    16   ar
    37     6     1   am
    38    13     8   ar
    39    35    36    1
@<TRIPOS>MOLECULE
*****
 36 39 0 0 0
SMALL
GASTEIGER

@<TRIPOS>ATOM
      1 N          63.4950   90.5713   11.9746 N.am    1  UNL1       -0.2438
      2 C          64.1445   90.4191   13.3181 C.3     1  UNL1        0.1009
      3 C          65.3497   91.2416   13.6660 C.3     1  UNL1        0.0662
      4 C          65.9053   92.2163   12.6705 C.3     1  UNL1        0.1600
      5 O          65.2558   92.3686   11.3270 O.3     1  UNL1       -0.4374
      6 C          64.0506   91.5461   10.9791 C.2     1  UNL1        0.4051
      7 O          63.4011   91.6983    9.6356 O.2     1  UNL1       -0.2262
      8 C          66.8634   92.4281   13.8051 C.ar    1  UNL1        0.0138
      9 C          66.3614   92.9282   15.1271 C.ar    1  UNL1       -0.0010
     10 C          67.3195   93.1400   16.2618 C.ar    1  UNL1       -0.0002
     11 C          68.7795   92.8517   16.0742 C.ar    1  UNL1       -0.0000
     12 C          69.2815   92.3515   14.7521 C.ar    1  UNL1       -0.0002
     13 C          68.3234   92.1397   13.6176 C.ar    1  UNL1       -0.0010
     14 C          62.2898   89.7488   11.6267 C.3     1  UNL1        0.1011
     15 C          61.0238   90.4222   11.1865 C.3     1  UNL1        0.0265
     16 C          62.4724   85.2611   11.9037 C.ar    1  UNL1        0.0014
     17 C          63.3294   86.1034   12.8014 C.ar    1  UNL1       -0.0002
     18 C          63.2686   87.5993   12.7091 C.ar    1  UNL1       -0.0027
     19 C          62.3506   88.2530   11.7190 C.ar    1  UNL1       -0.0042
     20 C          61.4936   87.4106   10.8213 C.ar    1  UNL1       -0.0027
     21 C          61.5545   85.9147   10.9137 C.ar    1  UNL1       -0.0002
     22 C          63.4914   80.6557    9.7237 C.3     1  UNL1        0.0360
     23 C          63.0427   81.4625   10.9060 C.ar    1  UNL1        0.0343
     24 C          62.9819   82.9584   10.8137 C.ar    1  UNL1        0.0019
     25 C          62.5332   83.7651   11.9961 C.ar    1  UNL1        0.0171
     26 C          62.1455   83.0760   13.2707 C.ar    1  UNL1        0.0783
     27 N          62.2064   81.5801   13.3630 N.ar    1  UNL1       -0.2924
     28 C          61.8187   80.8909   14.6377 C.3     1  UNL1        0.1336
     29 C          62.6550   80.7734   12.1807 C.ar    1  UNL1        0.2569
     30 O          62.7159   79.2774   12.2730 O.2     1  UNL1       -0.2673
     31 C          66.7937   93.2646   12.0690 C.3     1  UNL1        0.0714
     32 C          66.6054   93.6768   10.6391 C.3     1  UNL1        0.0922
     33 C          65.7831   94.8492   11.0853 C.3     1  UNL1        0.0294
     34 C          67.4277   92.5044   10.1927 C.3     1  UNL1        0.0294
     35 O          66.4172   94.0890    9.2091 O.3     1  UNL1       -0.3866
     36 H          65.8752   94.8927    9.1729 H       1  UNL1        0.2102
@<TRIPOS>BOND
     1    22    23    1
     2    23    24   ar
     3    24    25   ar
     4    25    16    1
     5    16    17   ar
     6    17    18   ar
     7    18    19   ar
     8    19    14    1
     9    14    15    1
    10    14     1    1
    11     1     2    1
    12     2     3    1
    13     3     4    1
    14     4    31    1
    15    31    32    1
    16    32    33    1
    17    32    34    1
    18    32    35    1
    19     4     8    1
    20     8     9   ar
    21     9    10   ar
    22    10    11   ar
    23    11    12   ar
    24    12    13   ar
    25     4     5    1
    26     5     6    1
    27     6     7    2
    28    19    20   ar
    29    20    21   ar
    30    25    26   ar
    31    26    27   ar
    32    27    28    1
    33    27    29   ar
    34    29    30    2
    35    29    23   ar
    36    21    16   ar
    37     6     1   am
    38    13     8   ar
    39    35    36    1
@<TRIPOS>MOLECULE
*****
 36 39 0 0 0
SMALL
GASTEIGER

@<TRIPOS>ATOM
      1 N          63.4849   90.5604   11.9736 N.am    1  UNL1       -0.2438
      2 C          64.1333   90.3980   13.3164 C.3     1  UNL1        0.1009
      3 C          65.3367   91.2195   13.6725 C.3     1  UNL1        0.0662
      4 C          65.8918   92.2035   12.6857 C.3     1  UNL1        0.1600
      5 O          65.2435   92.3659   11.3429 O.3     1  UNL1       -0.4374
      6 C          64.0400   91.5443   10.9868 C.2     1  UNL1        0.4051
      7 O          63.3916   91.7067    9.6440 O.2     1  UNL1       -0.2262
      8 C          66.8483   92.4074   13.8230 C.ar    1  UNL1        0.0138
      9 C          68.3085   92.1203   13.6356 C.ar    1  UNL1       -0.0010
     10 C          69.2651   92.3243   14.7730 C.ar    1  UNL1       -0.0002
     11 C          68.7612   92.8152   16.0978 C.ar    1  UNL1       -0.0000
     12 C          67.3009   93.1023   16.2852 C.ar    1  UNL1       -0.0002
     13 C          66.3444   92.8984   15.1479 C.ar    1  UNL1       -0.0010
     14 C          62.2815   89.7388   11.6175 C.3     1  UNL1        0.1011
     15 C          61.0183   90.4133   11.1711 C.3     1  UNL1        0.0265
     16 C          62.4611   85.2506   11.8884 C.ar    1  UNL1        0.0014
     17 C          61.5521   85.9060   10.8913 C.ar    1  UNL1       -0.0002
     18 C          61.4922   87.4020   10.8010 C.ar    1  UNL1       -0.0027
     19 C          62.3414   88.2428   11.7078 C.ar    1  UNL1       -0.0042
     20 C          63.2504   87.5873   12.7049 C.ar    1  UNL1       -0.0027
     21 C          63.3102   86.0912   12.7952 C.ar    1  UNL1       -0.0002
     22 C          61.6909   80.8702   14.5752 C.3     1  UNL1        0.0360
     23 C          62.1358   81.5643   13.3221 C.ar    1  UNL1        0.0343
     24 C          62.0760   83.0603   13.2318 C.ar    1  UNL1        0.0019
     25 C          62.5209   83.7544   11.9787 C.ar    1  UNL1        0.0171
     26 C          63.0256   82.9525   10.8159 C.ar    1  UNL1        0.0783
     27 N          63.0854   81.4564   10.9062 N.ar    1  UNL1       -0.2924
     28 C          63.5901   80.6544    9.7434 C.3     1  UNL1        0.1336
     29 C          62.6405   80.7623   12.1593 C.ar    1  UNL1        0.2569
     30 O          62.7003   79.2662   12.2496 O.2     1  UNL1       -0.2673
     31 C          66.7790   93.2583   12.0939 C.3     1  UNL1        0.0714
     32 C          66.6137   93.6580   10.6577 C.3     1  UNL1        0.0922
     33 C          67.4284   92.4720   10.2338 C.3     1  UNL1        0.0294
     34 C          65.7991   94.8441   11.0815 C.3     1  UNL1        0.0294
     35 O          66.4484   94.0578    9.2213 O.3     1  UNL1       -0.3866
     36 H          66.9095   93.4209    8.6533 H       1  UNL1        0.2102
@<TRIPOS>BOND
     1    22    23    1
     2    23    24   ar
     3    24    25   ar
     4    25    16    1
     5    16    17   ar
     6    17    18   ar
     7    18    19   ar
     8    19    14    1
     9    14    15    1
    10    14     1    1
    11     1     2    1
    12     2     3    1
    13     3     4    1
    14     4    31    1
    15    31    32    1
    16    32    33    1
    17    32    34    1
    18    32    35    1
    19     4     8    1
    20     8     9   ar
    21     9    10   ar
    22    10    11   ar
    23    11    12   ar
    24    12    13   ar
    25     4     5    1
    26     5     6    1
    27     6     7    2
    28    19    20   ar
    29    20    21   ar
    30    25    26   ar
    31    26    27   ar
    32    27    28    1
    33    27    29   ar
    34    29    30    2
    35    29    23   ar
    36    21    16   ar
    37     6     1   am
    38    13     8   ar
    39    35    36    1
@<TRIPOS>MOLECULE
*****
 36 39 0 0 0
SMALL
GASTEIGER

@<TRIPOS>ATOM
      1 N          62.1829   87.3521   11.9618 N.am    1  UNL1       -0.2438
      2 C          61.8141   86.1934   11.0835 C.3     1  UNL1        0.1009
      3 C          62.3638   84.8281   11.3729 C.3     1  UNL1        0.0662
      4 C          63.2823   84.6215   12.5406 C.3     1  UNL1        0.1600
      5 O          63.6512   85.7801   13.4189 O.3     1  UNL1       -0.4374
      6 C          63.1015   87.1455   13.1295 C.2     1  UNL1        0.4051
      7 O          63.4703   88.3041   14.0078 O.2     1  UNL1       -0.2262
      8 C          63.2256   83.2223   12.0030 C.ar    1  UNL1        0.0138
      9 C          62.5040   82.1533   12.7688 C.ar    1  UNL1       -0.0010
     10 C          62.4473   80.7540   12.2312 C.ar    1  UNL1       -0.0002
     11 C          63.1123   80.4239   10.9278 C.ar    1  UNL1       -0.0000
     12 C          63.8338   81.4929   10.1620 C.ar    1  UNL1       -0.0002
     13 C          63.8905   82.8921   10.6996 C.ar    1  UNL1       -0.0010
     14 C          61.6333   88.7174   11.6723 C.3     1  UNL1        0.1011
     15 C          60.1501   88.9408   11.6560 C.3     1  UNL1        0.0265
     16 C          64.4338   92.1431   10.8529 C.ar    1  UNL1        0.0014
     17 C          63.5399   91.6282    9.7640 C.ar    1  UNL1       -0.0002
     18 C          62.6064   90.4863   10.0371 C.ar    1  UNL1       -0.0027
     19 C          62.5668   89.8593   11.3992 C.ar    1  UNL1       -0.0042
     20 C          63.4607   90.3742   12.4882 C.ar    1  UNL1       -0.0027
     21 C          64.3942   91.5161   12.2150 C.ar    1  UNL1       -0.0002
     22 C          68.2133   94.2820    7.9997 C.3     1  UNL1        0.0360
     23 C          67.2571   94.3544    9.1531 C.ar    1  UNL1        0.0343
     24 C          66.3236   93.2126    9.4263 C.ar    1  UNL1        0.0019
     25 C          65.3674   93.2850   10.5798 C.ar    1  UNL1        0.0171
     26 C          65.3446   94.4994   11.4600 C.ar    1  UNL1        0.0783
     27 N          66.2781   95.6412   11.1868 N.ar    1  UNL1       -0.2924
     28 C          66.2555   96.8556   12.0671 C.3     1  UNL1        0.1336
     29 C          67.2344   95.5688   10.0334 C.ar    1  UNL1        0.2569
     30 O          68.1679   96.7107    9.7602 O.2     1  UNL1       -0.2673
     31 C          64.1811   83.9289   13.5217 C.3     1  UNL1        0.0714
     32 C          64.4158   84.5283   14.8765 C.3     1  UNL1        0.0922
     33 C          63.0063   84.1961   15.2676 C.3     1  UNL1        0.0294
     34 C          65.8253   84.8605   14.4855 C.3     1  UNL1        0.0294
     35 O          64.6505   85.1277   16.2315 O.3     1  UNL1       -0.3866
     36 H          63.8417   85.0544   16.7620 H       1  UNL1        0.2102
@<TRIPOS>BOND
     1    22    23    1
     2    23    24   ar
     3    24    25   ar
     4    25    16    1
     5    16    17   ar
     6    17    18   ar
     7    18    19   ar
     8    19    14    1
     9    14    15    1
    10    14     1    1
    11     1     2    1
    12     2     3    1
    13     3     4    1
    14     4    31    1
    15    31    32    1
    16    32    33    1
    17    32    34    1
    18    32    35    1
    19     4     8    1
    20     8     9   ar
    21     9    10   ar
    22    10    11   ar
    23    11    12   ar
    24    12    13   ar
    25     4     5    1
    26     5     6    1
    27     6     7    2
    28    19    20   ar
    29    20    21   ar
    30    25    26   ar
    31    26    27   ar
    32    27    28    1
    33    27    29   ar
    34    29    30    2
    35    29    23   ar
    36    21    16   ar
    37     6     1   am
    38    13     8   ar
    39    35    36    1
@<TRIPOS>MOLECULE
*****
 36 39 0 0 0
SMALL
GASTEIGER

@<TRIPOS>ATOM
      1 N          63.7226   87.2666   14.9202 N.am    1  UNL1       -0.2438
      2 C          63.7699   86.9322   13.4586 C.3     1  UNL1        0.1009
      3 C          63.7371   85.4995   13.0156 C.3     1  UNL1        0.0662
      4 C          63.6570   84.4012   14.0340 C.3     1  UNL1        0.1600
      5 O          63.6096   84.7355   15.4955 O.3     1  UNL1       -0.4374
      6 C          63.6424   86.1682   15.9386 C.2     1  UNL1        0.4051
      7 O          63.5951   86.5025   17.4001 O.2     1  UNL1       -0.2262
      8 C          63.6791   83.5872   12.7743 C.ar    1  UNL1        0.0138
      9 C          64.6920   82.4939   12.6055 C.ar    1  UNL1       -0.0010
     10 C          64.7142   81.6799   11.3457 C.ar    1  UNL1       -0.0002
     11 C          63.7234   81.9594   10.2547 C.ar    1  UNL1       -0.0000
     12 C          62.7105   83.0528   10.4235 C.ar    1  UNL1       -0.0002
     13 C          62.6883   83.8667   11.6832 C.ar    1  UNL1       -0.0010
     14 C          63.7554   88.6993   15.3632 C.3     1  UNL1        0.1011
     15 C          63.2130   89.0809   16.7087 C.3     1  UNL1        0.0265
     16 C          65.4811   91.8525   12.6561 C.ar    1  UNL1        0.0014
     17 C          66.1858   91.4899   13.9296 C.ar    1  UNL1       -0.0002
     18 C          65.6106   90.4389   14.8320 C.ar    1  UNL1       -0.0027
     19 C          64.3306   89.7503   14.4608 C.ar    1  UNL1       -0.0042
     20 C          63.6259   90.1129   13.1873 C.ar    1  UNL1       -0.0027
     21 C          64.2012   91.1640   12.2849 C.ar    1  UNL1       -0.0002
     22 C          68.3181   93.1556    8.5023 C.3     1  UNL1        0.0360
     23 C          67.4749   93.5552    9.6768 C.ar    1  UNL1        0.0343
     24 C          66.8996   92.5041   10.5792 C.ar    1  UNL1        0.0019
     25 C          66.0564   92.9036   11.7536 C.ar    1  UNL1        0.0171
     26 C          65.7884   94.3542   12.0257 C.ar    1  UNL1        0.0783
     27 N          66.3637   95.4052   11.1233 N.ar    1  UNL1       -0.2924
     28 C          66.0958   96.8559   11.3954 C.3     1  UNL1        0.1336
     29 C          67.2069   95.0057    9.9489 C.ar    1  UNL1        0.2569
     30 O          67.7822   96.0568    9.0465 O.2     1  UNL1       -0.2673
     31 C          63.5845   83.0202   14.6149 C.3     1  UNL1        0.0714
     32 C          62.2756   82.2884   14.6486 C.3     1  UNL1        0.0922
     33 C          61.5693   83.5672   14.9889 C.3     1  UNL1        0.0294
     34 C          62.9817   81.0095   14.3082 C.3     1  UNL1        0.0294
     35 O          60.9665   81.5566   14.6822 O.3     1  UNL1       -0.3866
     36 H          60.2538   82.1785   14.8970 H       1  UNL1        0.2102
@<TRIPOS>BOND
     1    22    23    1
     2    23    24   ar
     3    24    25   ar
     4    25    16    1
     5    16    17   ar
     6    17    18   ar
     7    18    19   ar
     8    19    14    1
     9    14    15    1
    10    14     1    1
    11     1     2    1
    12     2     3    1
    13     3     4    1
    14     4    31    1
    15    31    32    1
    16    32    33    1
    17    32    34    1
    18    32    35    1
    19     4     8    1
    20     8     9   ar
    21     9    10   ar
    22    10    11   ar
    23    11    12   ar
    24    12    13   ar
    25     4     5    1
    26     5     6    1
    27     6     7    2
    28    19    20   ar
    29    20    21   ar
    30    25    26   ar
    31    26    27   ar
    32    27    28    1
    33    27    29   ar
    34    29    30    2
    35    29    23   ar
    36    21    16   ar
    37     6     1   am
    38    13     8   ar
    39    35    36    1
@<TRIPOS>MOLECULE
*****
 36 39 0 0 0
SMALL
GASTEIGER

@<TRIPOS>ATOM
      1 N          63.7148   87.2691   14.9259 N.am    1  UNL1       -0.2438
      2 C          63.7618   86.9373   13.4638 C.3     1  UNL1        0.1009
      3 C          63.7216   85.5056   13.0180 C.3     1  UNL1        0.0662
      4 C          63.6343   84.4058   14.0342 C.3     1  UNL1        0.1600
      5 O          63.5872   84.7376   15.4963 O.3     1  UNL1       -0.4374
      6 C          63.6274   86.1693   15.9422 C.2     1  UNL1        0.4051
      7 O          63.5804   86.5011   17.4042 O.2     1  UNL1       -0.2262
      8 C          63.6533   83.5941   12.7729 C.ar    1  UNL1        0.0138
      9 C          62.6236   83.8364   11.7096 C.ar    1  UNL1       -0.0010
     10 C          62.6426   83.0246   10.4482 C.ar    1  UNL1       -0.0002
     11 C          63.6915   81.9708   10.2504 C.ar    1  UNL1       -0.0000
     12 C          64.7213   81.7286   11.3138 C.ar    1  UNL1       -0.0002
     13 C          64.7023   82.5402   12.5751 C.ar    1  UNL1       -0.0010
     14 C          63.7550   88.7007   15.3717 C.3     1  UNL1        0.1011
     15 C          63.2229   89.0812   16.7216 C.3     1  UNL1        0.0265
     16 C          65.4719   91.8544   12.6594 C.ar    1  UNL1        0.0014
     17 C          64.1754   91.1872   12.3073 C.ar    1  UNL1       -0.0002
     18 C          63.6031   90.1360   13.2114 C.ar    1  UNL1       -0.0027
     19 C          64.3273   89.7519   14.4676 C.ar    1  UNL1       -0.0042
     20 C          65.6238   90.4191   14.8198 C.ar    1  UNL1       -0.0027
     21 C          66.1961   91.4704   13.9156 C.ar    1  UNL1       -0.0002
     22 C          66.0354   96.8550   11.3645 C.3     1  UNL1        0.0360
     23 C          66.3259   95.4059   11.1078 C.ar    1  UNL1        0.0343
     24 C          65.7537   94.3547   12.0119 C.ar    1  UNL1        0.0019
     25 C          66.0442   92.9056   11.7552 C.ar    1  UNL1        0.0171
     26 C          66.9070   92.5078   10.5945 C.ar    1  UNL1        0.0783
     27 N          67.4792   93.5590    9.6904 N.ar    1  UNL1       -0.2924
     28 C          68.3420   93.1613    8.5296 C.3     1  UNL1        0.1336
     29 C          67.1887   95.0081    9.9471 C.ar    1  UNL1        0.2569
     30 O          67.7610   96.0593    9.0429 O.2     1  UNL1       -0.2673
     31 C          63.5536   83.0241   14.6124 C.3     1  UNL1        0.0714
     32 C          62.2419   82.2969   14.6371 C.3     1  UNL1        0.0922
     33 C          62.9417   81.0222   14.2690 C.3     1  UNL1        0.0294
     34 C          61.5421   83.5714   15.0053 C.3     1  UNL1        0.0294
     35 O          60.9302   81.5695   14.6619 O.3     1  UNL1       -0.3866
     36 H          61.0741   80.6356   14.4427 H       1  UNL1        0.2102
@<TRIPOS>BOND
     1    22    23    1
     2    23    24   ar
     3    24    25   ar
     4    25    16    1
     5    16    17   ar
     6    17    18   ar
     7    18    19   ar
     8    19    14    1
     9    14    15    1
    10    14     1    1
    11     1     2    1
    12     2     3    1
    13     3     4    1
    14     4    31    1
    15    31    32    1
    16    32    33    1
    17    32    34    1
    18    32    35    1
    19     4     8    1
    20     8     9   ar
    21     9    10   ar
    22    10    11   ar
    23    11    12   ar
    24    12    13   ar
    25     4     5    1
    26     5     6    1
    27     6     7    2
    28    19    20   ar
    29    20    21   ar
    30    25    26   ar
    31    26    27   ar
    32    27    28    1
    33    27    29   ar
    34    29    30    2
    35    29    23   ar
    36    21    16   ar
    37     6     1   am
    38    13     8   ar
    39    35    36    1
