@<TRIPOS>MOLECULE
*****
 38 42 0 0 0
SMALL
GASTEIGER

@<TRIPOS>ATOM
      1 C          64.7189   90.8111   14.8901 C.3     1  UNL1        0.2250
      2 C          65.7624   91.7008   14.2823 C.2     1  UNL1        0.0436
      3 C          66.2358   92.9162   15.0232 C.2     1  UNL1        0.0288
      4 C          65.6656   93.2418   16.3719 C.2     1  UNL1        0.0896
      5 N          64.6221   92.3520   16.9797 N.am    1  UNL1       -0.1770
      6 C          64.1488   91.1367   16.2387 C.2     1  UNL1        0.2627
      7 O          63.1053   90.2470   16.8465 O.2     1  UNL1       -0.2719
      8 C          63.0231   85.1809   12.2389 C.2     1  UNL1        0.0332
      9 C          62.3715   86.0600   11.2131 C.2     1  UNL1        0.0101
     10 C          62.4556   87.5522   11.3417 C.2     1  UNL1        0.0255
     11 C          61.8039   88.4313   10.3157 C.3     1  UNL1        0.0351
     12 C          63.1913   88.1651   12.4962 C.2     1  UNL1        0.2278
     13 N          63.4401   89.5927   12.8838 N.2     1  UNL1       -0.0345
     14 C          64.2456   89.5958   14.1492 C.2     1  UNL1        0.3649
     15 N          64.4945   88.1701   14.5437 N.2     1  UNL1       -0.0380
     16 C          63.8430   87.2859   13.5221 C.2     1  UNL1        0.2184
     17 C          63.7588   85.7939   13.3935 C.3     1  UNL1        0.1186
     18 C          62.7708   80.7046   11.8530 C.3     1  UNL1        0.1188
     19 C          63.3585   81.5214   10.7406 C.3     1  UNL1        0.0510
     20 C          63.4426   83.0135   10.8692 C.3     1  UNL1        0.0930
     21 N          62.9390   83.6888   12.1103 N.pl3   1  UNL1       -0.3102
     22 C          62.3513   82.8721   13.2227 C.3     1  UNL1        0.0930
     23 C          62.2672   81.3799   13.0941 C.3     1  UNL1        0.0510
     24 C          62.7320   78.5729   10.3683 C.3     1  UNL1        0.1740
     25 O          62.6868   79.2125   11.7244 O.3     1  UNL1       -0.3535
     26 N          66.3326   91.3753   12.9336 N.pl3   1  UNL1       -0.3329
     27 H          65.9432   90.6474   12.3972 H       1  UNL1        0.1466
     28 C          67.4962   92.1587   12.4022 C.3     1  UNL1        0.1211
     29 C          67.4899   92.6405   10.9818 C.3     1  UNL1        0.1522
     30 O          67.9047   91.7172    9.8748 O.3     1  UNL1       -0.3783
     31 H          68.1446   90.8540   10.2465 H       1  UNL1        0.2109
     32 C          67.0688   94.0456   10.6682 C.ar    1  UNL1        0.0067
     33 C          66.2037   94.8021   11.6322 C.ar    1  UNL1       -0.0018
     34 C          65.7825   96.2073   11.3187 C.ar    1  UNL1        0.0006
     35 C          66.2265   96.8559   10.0412 C.ar    1  UNL1        0.0114
     36 C          67.0916   96.0994    9.0772 C.ar    1  UNL1        0.0574
     37 CL         67.5356   96.7481    7.7996 Cl      1  UNL1       -0.0823
     38 C          67.5127   94.6943    9.3907 C.ar    1  UNL1        0.0095
@<TRIPOS>BOND
     1    24    25    1
     2    25    18    1
     3    18    19    1
     4    19    20    1
     5    20    21    1
     6    21     8    1
     7     8     9    2
     8     9    10    1
     9    10    11    1
    10    10    12    2
    11    12    13    1
    12    13    14    2
    13    14     1    1
    14     1     2    1
    15     2    26    1
    16    26    28    1
    17    28    29    1
    18    29    30    1
    19    29    32    1
    20    32    33   ar
    21    33    34   ar
    22    34    35   ar
    23    35    36   ar
    24    36    37    1
    25    36    38   ar
    26     2     3    2
    27     3     4    1
    28     4     5    2
    29     5     6    1
    30     6     7    2
    31    14    15    1
    32    15    16    2
    33    16    17    1
    34    21    22    1
    35    22    23    1
    36    23    18    1
    37    17     8    1
    38    16    12    1
    39     6     1    1
    40    38    32   ar
    41    26    27    1
    42    30    31    1
@<TRIPOS>MOLECULE
*****
 38 42 0 0 0
SMALL
GASTEIGER

@<TRIPOS>ATOM
      1 C          61.1724   87.8595    9.6207 C.3     1  UNL1        0.2250
      2 C          61.4135   86.5259    8.9777 C.2     1  UNL1        0.0436
      3 C          60.4934   86.0362    7.8990 C.2     1  UNL1        0.0288
      4 C          59.3322   86.8799    7.4633 C.2     1  UNL1        0.0896
      5 N          59.0912   88.2135    8.1063 N.am    1  UNL1       -0.1770
      6 C          60.0113   88.7032    9.1850 C.2     1  UNL1        0.2627
      7 O          59.7702   90.0368    9.8280 O.2     1  UNL1       -0.2719
      8 C          65.1925   90.5974   13.8570 C.2     1  UNL1        0.0332
      9 C          65.0114   89.3059   14.5980 C.2     1  UNL1        0.0101
     10 C          64.1241   88.2358   14.0343 C.2     1  UNL1        0.0255
     11 C          63.9430   86.9442   14.7754 C.3     1  UNL1        0.0351
     12 C          63.4178   88.4574   12.7297 C.2     1  UNL1        0.2278
     13 N          62.4868   87.5924   11.9328 N.2     1  UNL1       -0.0345
     14 C          62.0925   88.3493   10.6994 C.2     1  UNL1        0.3649
     15 N          62.7798   89.6822   10.7339 N.2     1  UNL1       -0.0380
     16 C          63.5989   89.7490   11.9887 C.2     1  UNL1        0.2184
     17 C          64.4862   90.8190   12.5524 C.3     1  UNL1        0.1186
     18 C          67.8544   93.8076   15.5478 C.3     1  UNL1        0.1188
     19 C          66.9075   94.1301   14.4300 C.3     1  UNL1        0.0510
     20 C          66.0202   93.0601   13.8665 C.3     1  UNL1        0.0930
     21 N          66.0798   91.6675   14.4207 N.pl3   1  UNL1       -0.3102
     22 C          67.0267   91.3450   15.5383 C.3     1  UNL1        0.0930
     23 C          67.9141   92.4151   16.1020 C.3     1  UNL1        0.0510
     24 C          70.2301   94.6916   16.1176 C.3     1  UNL1        0.1740
     25 O          68.7417   94.8777   16.1113 O.3     1  UNL1       -0.3535
     26 N          62.5746   85.6822    9.4133 N.pl3   1  UNL1       -0.3329
     27 H          63.4698   86.0830    9.4986 H       1  UNL1        0.1466
     28 C          62.3719   84.2277    9.7190 C.3     1  UNL1        0.1211
     29 C          63.3643   83.4954   10.5728 C.3     1  UNL1        0.1522
     30 O          64.7883   83.3616   10.1206 O.3     1  UNL1       -0.3783
     31 H          64.8978   83.8013    9.2630 H       1  UNL1        0.2109
     32 C          62.9326   82.8968   11.8787 C.ar    1  UNL1        0.0067
     33 C          62.6057   81.4353   11.9623 C.ar    1  UNL1       -0.0018
     34 C          62.1740   80.8368   13.2682 C.ar    1  UNL1        0.0006
     35 C          62.0694   81.6998   14.4906 C.ar    1  UNL1        0.0114
     36 C          62.3963   83.1613   14.4070 C.ar    1  UNL1        0.0574
     37 CL         62.2916   84.0242   15.6294 Cl      1  UNL1       -0.0823
     38 C          62.8280   83.7598   13.1011 C.ar    1  UNL1        0.0095
@<TRIPOS>BOND
     1    24    25    1
     2    25    18    1
     3    18    19    1
     4    19    20    1
     5    20    21    1
     6    21     8    1
     7     8     9    2
     8     9    10    1
     9    10    11    1
    10    10    12    2
    11    12    13    1
    12    13    14    2
    13    14     1    1
    14     1     2    1
    15     2    26    1
    16    26    28    1
    17    28    29    1
    18    29    30    1
    19    29    32    1
    20    32    33   ar
    21    33    34   ar
    22    34    35   ar
    23    35    36   ar
    24    36    37    1
    25    36    38   ar
    26     2     3    2
    27     3     4    1
    28     4     5    2
    29     5     6    1
    30     6     7    2
    31    14    15    1
    32    15    16    2
    33    16    17    1
    34    21    22    1
    35    22    23    1
    36    23    18    1
    37    17     8    1
    38    16    12    1
    39     6     1    1
    40    38    32   ar
    41    26    27    1
    42    30    31    1
@<TRIPOS>MOLECULE
*****
 38 42 0 0 0
SMALL
GASTEIGER

@<TRIPOS>ATOM
      1 C          63.1202   83.6528   13.6627 C.3     1  UNL1        0.2250
      2 C          62.5863   83.2766   12.3123 C.2     1  UNL1        0.0436
      3 C          62.3107   81.8380   11.9890 C.2     1  UNL1        0.0288
      4 C          62.5691   80.7756   13.0159 C.2     1  UNL1        0.0896
      5 N          63.1030   81.1518   14.3663 N.am    1  UNL1       -0.1770
      6 C          63.3785   82.5904   14.6896 C.2     1  UNL1        0.2627
      7 O          63.9124   82.9666   16.0399 O.2     1  UNL1       -0.2719
      8 C          64.5686   89.9001   14.3524 C.2     1  UNL1        0.0332
      9 C          64.0259   89.6932   15.7353 C.2     1  UNL1        0.0101
     10 C          63.5158   88.3439   16.1468 C.2     1  UNL1        0.0255
     11 C          62.9729   88.1371   17.5298 C.3     1  UNL1        0.0351
     12 C          63.5485   87.2016   15.1752 C.2     1  UNL1        0.2278
     13 N          63.1186   85.7695   15.2950 N.2     1  UNL1       -0.0345
     14 C          63.3958   85.0913   13.9861 C.2     1  UNL1        0.3649
     15 N          63.9969   86.1043   13.0573 N.2     1  UNL1       -0.0380
     16 C          64.0913   87.4085   13.7923 C.2     1  UNL1        0.2184
     17 C          64.6014   88.7578   13.3809 C.3     1  UNL1        0.1186
     18 C          66.0989   93.9479   13.1179 C.3     1  UNL1        0.1188
     19 C          65.3571   93.0941   12.1327 C.3     1  UNL1        0.0510
     20 C          64.8470   91.7448   12.5442 C.3     1  UNL1        0.0930
     21 N          65.0788   91.2494   13.9410 N.pl3   1  UNL1       -0.3102
     22 C          65.8205   92.1032   14.9261 C.3     1  UNL1        0.0930
     23 C          66.3306   93.4526   14.5147 C.3     1  UNL1        0.0510
     24 C          66.1289   95.9233   11.4307 C.3     1  UNL1        0.1740
     25 O          66.6089   95.2972   12.7064 O.3     1  UNL1       -0.3535
     26 N          62.3280   84.3389   11.2854 N.pl3   1  UNL1       -0.3329
     27 H          61.5943   84.9822   11.4164 H       1  UNL1        0.1466
     28 C          63.1874   84.4212   10.0587 C.3     1  UNL1        0.1211
     29 C          62.7054   85.1743    8.8544 C.3     1  UNL1        0.1522
     30 O          63.0460   84.6851    7.4780 O.3     1  UNL1       -0.3783
     31 H          63.5786   83.8772    7.5446 H       1  UNL1        0.2109
     32 C          61.8827   86.4168    9.0266 C.ar    1  UNL1        0.0067
     33 C          60.5007   86.4874    8.4479 C.ar    1  UNL1       -0.0018
     34 C          59.6781   87.7299    8.6201 C.ar    1  UNL1        0.0006
     35 C          60.2375   88.9017    9.3710 C.ar    1  UNL1        0.0114
     36 C          61.6195   88.8310    9.9497 C.ar    1  UNL1        0.0574
     37 CL         62.1790   90.0029   10.7006 Cl      1  UNL1       -0.0823
     38 C          62.4422   87.5886    9.7775 C.ar    1  UNL1        0.0095
@<TRIPOS>BOND
     1    24    25    1
     2    25    18    1
     3    18    19    1
     4    19    20    1
     5    20    21    1
     6    21     8    1
     7     8     9    2
     8     9    10    1
     9    10    11    1
    10    10    12    2
    11    12    13    1
    12    13    14    2
    13    14     1    1
    14     1     2    1
    15     2    26    1
    16    26    28    1
    17    28    29    1
    18    29    30    1
    19    29    32    1
    20    32    33   ar
    21    33    34   ar
    22    34    35   ar
    23    35    36   ar
    24    36    37    1
    25    36    38   ar
    26     2     3    2
    27     3     4    1
    28     4     5    2
    29     5     6    1
    30     6     7    2
    31    14    15    1
    32    15    16    2
    33    16    17    1
    34    21    22    1
    35    22    23    1
    36    23    18    1
    37    17     8    1
    38    16    12    1
    39     6     1    1
    40    38    32   ar
    41    26    27    1
    42    30    31    1
@<TRIPOS>MOLECULE
*****
 38 42 0 0 0
SMALL
GASTEIGER

@<TRIPOS>ATOM
      1 C          65.1606   91.5842   13.5608 C.3     1  UNL1        0.2250
      2 C          64.9562   92.0646   12.1545 C.2     1  UNL1        0.0436
      3 C          65.4166   93.4355   11.7560 C.2     1  UNL1        0.0288
      4 C          66.0813   94.3259   12.7636 C.2     1  UNL1        0.0896
      5 N          66.2856   93.8455   14.1698 N.am    1  UNL1       -0.1770
      6 C          65.8252   92.4747   14.5684 C.2     1  UNL1        0.2627
      7 O          66.0296   91.9943   15.9746 O.2     1  UNL1       -0.2719
      8 C          63.3264   85.4829   14.5673 C.2     1  UNL1        0.0332
      9 C          63.0625   85.9762   15.9590 C.2     1  UNL1        0.0101
     10 C          63.3292   87.4101   16.3097 C.2     1  UNL1        0.0255
     11 C          63.0653   87.9033   17.7015 C.3     1  UNL1        0.0351
     12 C          63.8598   88.3506   15.2686 C.2     1  UNL1        0.2278
     13 N          64.2161   89.8068   15.3196 N.2     1  UNL1       -0.0345
     14 C          64.7002   90.2134   13.9594 C.2     1  UNL1        0.3649
     15 N          64.6431   89.0086   13.0677 N.2     1  UNL1       -0.0380
     16 C          64.1237   87.8573   13.8769 C.2     1  UNL1        0.2184
     17 C          63.8570   86.4234   13.5262 C.3     1  UNL1        0.1186
     18 C          62.5263   81.1814   13.5150 C.3     1  UNL1        0.1188
     19 C          63.6088   81.9386   12.8044 C.3     1  UNL1        0.0510
     20 C          63.8755   83.3724   13.1552 C.3     1  UNL1        0.0930
     21 N          63.0596   84.0491   14.2165 N.pl3   1  UNL1       -0.3102
     22 C          61.9771   83.2920   14.9270 C.3     1  UNL1        0.0930
     23 C          61.7104   81.8581   14.5763 C.3     1  UNL1        0.0510
     24 C          62.6732   79.2138   11.8248 C.3     1  UNL1        0.1740
     25 O          62.2596   79.7476   13.1642 O.3     1  UNL1       -0.3535
     26 N          64.2916   91.1742   11.1469 N.pl3   1  UNL1       -0.3329
     27 H          64.8315   90.5523   10.6076 H       1  UNL1        0.1466
     28 C          62.8042   91.2315   10.9609 C.3     1  UNL1        0.1211
     29 C          61.9483   90.0821   11.4037 C.3     1  UNL1        0.1522
     30 O          61.5054   89.9840   12.8335 O.3     1  UNL1       -0.3783
     31 H          61.8566   90.7375   13.3332 H       1  UNL1        0.2109
     32 C          61.5352   89.0307   10.4168 C.ar    1  UNL1        0.0067
     33 C          60.3097   89.2318    9.5756 C.ar    1  UNL1       -0.0018
     34 C          59.8966   88.1805    8.5887 C.ar    1  UNL1        0.0006
     35 C          60.7090   86.9279    8.4430 C.ar    1  UNL1        0.0114
     36 C          61.9344   86.7268    9.2843 C.ar    1  UNL1        0.0574
     37 CL         62.7468   85.4743    9.1386 Cl      1  UNL1       -0.0823
     38 C          62.3475   87.7782   10.2712 C.ar    1  UNL1        0.0095
@<TRIPOS>BOND
     1    24    25    1
     2    25    18    1
     3    18    19    1
     4    19    20    1
     5    20    21    1
     6    21     8    1
     7     8     9    2
     8     9    10    1
     9    10    11    1
    10    10    12    2
    11    12    13    1
    12    13    14    2
    13    14     1    1
    14     1     2    1
    15     2    26    1
    16    26    28    1
    17    28    29    1
    18    29    30    1
    19    29    32    1
    20    32    33   ar
    21    33    34   ar
    22    34    35   ar
    23    35    36   ar
    24    36    37    1
    25    36    38   ar
    26     2     3    2
    27     3     4    1
    28     4     5    2
    29     5     6    1
    30     6     7    2
    31    14    15    1
    32    15    16    2
    33    16    17    1
    34    21    22    1
    35    22    23    1
    36    23    18    1
    37    17     8    1
    38    16    12    1
    39     6     1    1
    40    38    32   ar
    41    26    27    1
    42    30    31    1
@<TRIPOS>MOLECULE
*****
 38 42 0 0 0
SMALL
GASTEIGER

@<TRIPOS>ATOM
      1 C          63.0141   83.6889   13.4622 C.3     1  UNL1        0.2250
      2 C          62.9232   82.9874   12.1395 C.2     1  UNL1        0.0436
      3 C          62.5943   81.5248   12.0874 C.2     1  UNL1        0.0288
      4 C          62.3562   80.7638   13.3579 C.2     1  UNL1        0.0896
      5 N          62.4471   81.4653   14.6806 N.am    1  UNL1       -0.1770
      6 C          62.7761   82.9279   14.7327 C.2     1  UNL1        0.2627
      7 O          62.8670   83.6294   16.0554 O.2     1  UNL1       -0.2719
      8 C          64.9421   89.7990   14.2053 C.2     1  UNL1        0.0332
      9 C          63.8960   90.0715   13.1655 C.2     1  UNL1        0.0101
     10 C          63.0880   88.9411   12.6002 C.2     1  UNL1        0.0255
     11 C          62.0419   89.2136   11.5603 C.3     1  UNL1        0.0351
     12 C          63.3262   87.5383   13.0749 C.2     1  UNL1        0.2278
     13 N          62.6901   86.2315   12.7039 N.2     1  UNL1       -0.0345
     14 C          63.3431   85.1515   13.5145 C.2     1  UNL1        0.3649
     15 N          64.3828   85.7907   14.3865 N.2     1  UNL1       -0.0380
     16 C          64.3724   87.2659   14.1149 C.2     1  UNL1        0.2184
     17 C          65.1803   88.3962   14.6801 C.3     1  UNL1        0.1186
     18 C          67.3661   93.1901   15.9010 C.3     1  UNL1        0.1188
     19 C          67.9588   92.2950   14.8533 C.3     1  UNL1        0.0510
     20 C          67.1508   91.1647   14.2881 C.3     1  UNL1        0.0930
     21 N          65.7501   90.9294   14.7706 N.pl3   1  UNL1       -0.3102
     22 C          65.1575   91.8245   15.8182 C.3     1  UNL1        0.0930
     23 C          65.9655   92.9549   16.3834 C.3     1  UNL1        0.0510
     24 C          69.5976   94.5138   16.0347 C.3     1  UNL1        0.1740
     25 O          68.1742   94.3204   16.4662 O.3     1  UNL1       -0.3535
     26 N          63.1612   83.7483   10.8690 N.pl3   1  UNL1       -0.3329
     27 H          64.0679   83.8006   10.4890 H       1  UNL1        0.1466
     28 C          62.0178   84.4297   10.1774 C.3     1  UNL1        0.1211
     29 C          62.2823   85.3643    9.0343 C.3     1  UNL1        0.1522
     30 O          63.6094   85.3379    8.3356 O.3     1  UNL1       -0.3783
     31 H          64.1764   84.6650    8.7438 H       1  UNL1        0.2109
     32 C          61.2197   86.3252    8.5900 C.ar    1  UNL1        0.0067
     33 C          60.1670   85.8823    7.6176 C.ar    1  UNL1       -0.0018
     34 C          59.1044   86.8433    7.1733 C.ar    1  UNL1        0.0006
     35 C          59.0945   88.2472    7.7014 C.ar    1  UNL1        0.0114
     36 C          60.1472   88.6901    8.6737 C.ar    1  UNL1        0.0574
     37 CL         60.1373   90.0941    9.2018 Cl      1  UNL1       -0.0823
     38 C          61.2098   87.7292    9.1181 C.ar    1  UNL1        0.0095
@<TRIPOS>BOND
     1    24    25    1
     2    25    18    1
     3    18    19    1
     4    19    20    1
     5    20    21    1
     6    21     8    1
     7     8     9    2
     8     9    10    1
     9    10    11    1
    10    10    12    2
    11    12    13    1
    12    13    14    2
    13    14     1    1
    14     1     2    1
    15     2    26    1
    16    26    28    1
    17    28    29    1
    18    29    30    1
    19    29    32    1
    20    32    33   ar
    21    33    34   ar
    22    34    35   ar
    23    35    36   ar
    24    36    37    1
    25    36    38   ar
    26     2     3    2
    27     3     4    1
    28     4     5    2
    29     5     6    1
    30     6     7    2
    31    14    15    1
    32    15    16    2
    33    16    17    1
    34    21    22    1
    35    22    23    1
    36    23    18    1
    37    17     8    1
    38    16    12    1
    39     6     1    1
    40    38    32   ar
    41    26    27    1
    42    30    31    1
@<TRIPOS>MOLECULE
*****
 38 42 0 0 0
SMALL
GASTEIGER

@<TRIPOS>ATOM
      1 C          63.1213   84.4736   11.6180 C.3     1  UNL1        0.2250
      2 C          63.5329   84.5649   13.0575 C.2     1  UNL1        0.0436
      3 C          64.2934   83.4388   13.6929 C.2     1  UNL1        0.0288
      4 C          64.6423   82.2215   12.8889 C.2     1  UNL1        0.0896
      5 N          64.2306   82.1302   11.4494 N.am    1  UNL1       -0.1770
      6 C          63.4701   83.2563   10.8140 C.2     1  UNL1        0.2627
      7 O          63.0585   83.1649    9.3745 O.2     1  UNL1       -0.2719
      8 C          60.1533   89.0935    8.2342 C.2     1  UNL1        0.0332
      9 C          59.5936   89.4714    9.5735 C.2     1  UNL1        0.0101
     10 C          59.9723   88.6852   10.7936 C.2     1  UNL1        0.0255
     11 C          59.4125   89.0631   12.1330 C.3     1  UNL1        0.0351
     12 C          60.9107   87.5212   10.6743 C.2     1  UNL1        0.2278
     13 N          61.4610   86.5671   11.6926 N.2     1  UNL1       -0.0345
     14 C          62.3608   85.5995   10.9825 C.2     1  UNL1        0.3649
     15 N          62.3667   85.9556    9.5254 N.2     1  UNL1       -0.0380
     16 C          61.4705   87.1433    9.3349 C.2     1  UNL1        0.2184
     17 C          61.0918   87.9295    8.1149 C.3     1  UNL1        0.1186
     18 C          59.0172   91.4520    4.5740 C.3     1  UNL1        0.1188
     19 C          57.9496   90.8758    5.4562 C.3     1  UNL1        0.0510
     20 C          58.3284   90.0897    6.6763 C.3     1  UNL1        0.0930
     21 N          59.7746   89.8797    7.0141 N.pl3   1  UNL1       -0.3102
     22 C          60.8422   90.4559    6.1319 C.3     1  UNL1        0.0930
     23 C          60.4635   91.2420    4.9118 C.3     1  UNL1        0.0510
     24 C          59.7054   92.8427    2.4903 C.3     1  UNL1        0.1740
     25 O          58.6385   92.2381    3.3539 O.3     1  UNL1       -0.3535
     26 N          63.1841   85.7821   13.8616 N.pl3   1  UNL1       -0.3329
     27 H          62.2409   86.0013   14.0388 H       1  UNL1        0.1466
     28 C          64.2725   86.6654   14.3958 C.3     1  UNL1        0.1211
     29 C          63.9389   88.0262   14.9312 C.3     1  UNL1        0.1522
     30 O          63.4142   88.1745   16.3286 O.3     1  UNL1       -0.3783
     31 H          63.3513   87.3006   16.7448 H       1  UNL1        0.2109
     32 C          64.1300   89.2388   14.0692 C.ar    1  UNL1        0.0067
     33 C          65.0565   90.3334   14.5091 C.ar    1  UNL1       -0.0018
     34 C          65.2476   91.5460   13.6471 C.ar    1  UNL1        0.0006
     35 C          64.5121   91.6641   12.3451 C.ar    1  UNL1        0.0114
     36 C          63.5856   90.5696   11.9052 C.ar    1  UNL1        0.0574
     37 CL         62.8501   90.6877   10.6033 Cl      1  UNL1       -0.0823
     38 C          63.3945   89.3570   12.7672 C.ar    1  UNL1        0.0095
@<TRIPOS>BOND
     1    24    25    1
     2    25    18    1
     3    18    19    1
     4    19    20    1
     5    20    21    1
     6    21     8    1
     7     8     9    2
     8     9    10    1
     9    10    11    1
    10    10    12    2
    11    12    13    1
    12    13    14    2
    13    14     1    1
    14     1     2    1
    15     2    26    1
    16    26    28    1
    17    28    29    1
    18    29    30    1
    19    29    32    1
    20    32    33   ar
    21    33    34   ar
    22    34    35   ar
    23    35    36   ar
    24    36    37    1
    25    36    38   ar
    26     2     3    2
    27     3     4    1
    28     4     5    2
    29     5     6    1
    30     6     7    2
    31    14    15    1
    32    15    16    2
    33    16    17    1
    34    21    22    1
    35    22    23    1
    36    23    18    1
    37    17     8    1
    38    16    12    1
    39     6     1    1
    40    38    32   ar
    41    26    27    1
    42    30    31    1
@<TRIPOS>MOLECULE
*****
 38 42 0 0 0
SMALL
GASTEIGER

@<TRIPOS>ATOM
      1 C          62.9255   84.1712   11.5033 C.3     1  UNL1        0.2250
      2 C          62.8352   83.9143   12.9783 C.2     1  UNL1        0.0436
      3 C          63.5408   82.7345   13.5786 C.2     1  UNL1        0.0288
      4 C          64.3368   81.8118   12.7039 C.2     1  UNL1        0.0896
      5 N          64.4271   82.0688   11.2289 N.am    1  UNL1       -0.1770
      6 C          63.7214   83.2485   10.6286 C.2     1  UNL1        0.2627
      7 O          63.8117   83.5055    9.1535 O.2     1  UNL1       -0.2719
      8 C          60.1293   88.9914    8.2552 C.2     1  UNL1        0.0332
      9 C          59.6946   89.4275    9.6229 C.2     1  UNL1        0.0101
     10 C          60.0883   88.6239   10.8268 C.2     1  UNL1        0.0255
     11 C          59.6535   89.0601   12.1946 C.3     1  UNL1        0.0351
     12 C          60.9167   87.3843   10.6629 C.2     1  UNL1        0.2278
     13 N          61.4534   86.3971   11.6566 N.2     1  UNL1       -0.0345
     14 C          62.2199   85.3509   10.9029 C.2     1  UNL1        0.3649
     15 N          62.1568   85.6915    9.4434 N.2     1  UNL1       -0.0380
     16 C          61.3514   86.9482    9.2951 C.2     1  UNL1        0.2184
     17 C          60.9577   87.7517    8.0912 C.3     1  UNL1        0.1186
     18 C          58.9483   91.4021    4.6435 C.3     1  UNL1        0.1188
     19 C          60.3982   91.2179    4.9809 C.3     1  UNL1        0.0510
     20 C          60.7918   90.4143    6.1848 C.3     1  UNL1        0.0930
     21 N          59.7356   89.7950    7.0512 N.pl3   1  UNL1       -0.3102
     22 C          58.2857   89.9792    6.7138 C.3     1  UNL1        0.0930
     23 C          57.8920   90.7827    5.5099 C.3     1  UNL1        0.0510
     24 C          59.6112   92.8135    2.5654 C.3     1  UNL1        0.1740
     25 O          58.5547   92.2056    3.4396 O.3     1  UNL1       -0.3535
     26 N          62.0393   84.8369   13.8531 N.pl3   1  UNL1       -0.3329
     27 H          61.2282   85.2706   13.5018 H       1  UNL1        0.1466
     28 C          62.4791   85.0989   15.2630 C.3     1  UNL1        0.1211
     29 C          63.7472   85.8561   15.5246 C.3     1  UNL1        0.1522
     30 O          65.0433   85.1174   15.6807 O.3     1  UNL1       -0.3783
     31 H          64.8861   84.1650   15.5850 H       1  UNL1        0.2109
     32 C          63.7192   87.3522   15.6302 C.ar    1  UNL1        0.0067
     33 C          63.1359   88.0074   16.8468 C.ar    1  UNL1       -0.0018
     34 C          63.1079   89.5034   16.9524 C.ar    1  UNL1        0.0006
     35 C          63.6633   90.3442   15.8413 C.ar    1  UNL1        0.0114
     36 C          64.2466   89.6890   14.6246 C.ar    1  UNL1        0.0574
     37 CL         64.8020   90.5298   13.5135 Cl      1  UNL1       -0.0823
     38 C          64.2746   88.1930   14.5191 C.ar    1  UNL1        0.0095
@<TRIPOS>BOND
     1    24    25    1
     2    25    18    1
     3    18    19    1
     4    19    20    1
     5    20    21    1
     6    21     8    1
     7     8     9    2
     8     9    10    1
     9    10    11    1
    10    10    12    2
    11    12    13    1
    12    13    14    2
    13    14     1    1
    14     1     2    1
    15     2    26    1
    16    26    28    1
    17    28    29    1
    18    29    30    1
    19    29    32    1
    20    32    33   ar
    21    33    34   ar
    22    34    35   ar
    23    35    36   ar
    24    36    37    1
    25    36    38   ar
    26     2     3    2
    27     3     4    1
    28     4     5    2
    29     5     6    1
    30     6     7    2
    31    14    15    1
    32    15    16    2
    33    16    17    1
    34    21    22    1
    35    22    23    1
    36    23    18    1
    37    17     8    1
    38    16    12    1
    39     6     1    1
    40    38    32   ar
    41    26    27    1
    42    30    31    1
@<TRIPOS>MOLECULE
*****
 38 42 0 0 0
SMALL
GASTEIGER

@<TRIPOS>ATOM
      1 C          61.4700   93.8781    0.3903 C.3     1  UNL1        0.2250
      2 C          62.4770   94.8883    0.8544 C.2     1  UNL1        0.0436
      3 C          63.5906   94.4717    1.7689 C.2     1  UNL1        0.0288
      4 C          63.6973   93.0449    2.2193 C.2     1  UNL1        0.0896
      5 N          62.6903   92.0346    1.7552 N.am    1  UNL1       -0.1770
      6 C          61.5767   92.4513    0.8407 C.2     1  UNL1        0.2627
      7 O          60.5697   91.4410    0.3766 O.2     1  UNL1       -0.2719
      8 C          56.2153   95.5136   -2.9737 C.2     1  UNL1        0.0332
      9 C          57.2122   95.8003   -4.0571 C.2     1  UNL1        0.0101
     10 C          58.6752   95.5829   -3.8069 C.2     1  UNL1        0.0255
     11 C          59.6721   95.8696   -4.8905 C.3     1  UNL1        0.0351
     12 C          59.1411   95.0789   -2.4732 C.2     1  UNL1        0.2278
     13 N          60.5084   94.7713   -1.9383 N.2     1  UNL1       -0.0345
     14 C          60.3564   94.2946   -0.5242 C.2     1  UNL1        0.3649
     15 N          58.8953   94.3075   -0.1852 N.2     1  UNL1       -0.0380
     16 C          58.1442   94.7922   -1.3897 C.2     1  UNL1        0.2184
     17 C          56.6813   95.0096   -1.6400 C.3     1  UNL1        0.1186
     18 C          51.8265   96.1658   -3.7244 C.3     1  UNL1        0.1188
     19 C          52.8024   96.2497   -4.8605 C.3     1  UNL1        0.0510
     20 C          54.2653   96.0323   -4.6102 C.3     1  UNL1        0.0930
     21 N          54.7523   95.7310   -3.2239 N.pl3   1  UNL1       -0.3102
     22 C          53.7766   95.6471   -2.0878 C.3     1  UNL1        0.0930
     23 C          52.3136   95.8645   -2.3380 C.3     1  UNL1        0.0510
     24 C          49.7861   96.1096   -5.3317 C.3     1  UNL1        0.1740
     25 O          50.3636   96.3832   -3.9746 O.3     1  UNL1       -0.3535
     26 N          62.3704   96.3151    0.4040 N.pl3   1  UNL1       -0.3329
     27 H          61.6959   96.9090    0.8059 H       1  UNL1        0.1466
     28 C          63.2914   96.8370   -0.6587 C.3     1  UNL1        0.1211
     29 C          64.3270   95.9354   -1.2626 C.3     1  UNL1        0.1522
     30 O          65.7088   95.8854   -0.6811 O.3     1  UNL1       -0.3783
     31 H          65.7640   96.4917    0.0740 H       1  UNL1        0.2109
     32 C          63.9807   95.0838   -2.4478 C.ar    1  UNL1        0.0067
     33 C          63.9385   93.5906   -2.3119 C.ar    1  UNL1       -0.0018
     34 C          63.5922   92.7391   -3.4972 C.ar    1  UNL1        0.0006
     35 C          63.2881   93.3807   -4.8185 C.ar    1  UNL1        0.0114
     36 C          63.3303   94.8739   -4.9544 C.ar    1  UNL1        0.0574
     37 CL         63.0262   95.5156   -6.2757 Cl      1  UNL1       -0.0823
     38 C          63.6766   95.7255   -3.7691 C.ar    1  UNL1        0.0095
@<TRIPOS>BOND
     1    24    25    1
     2    25    18    1
     3    18    19    1
     4    19    20    1
     5    20    21    1
     6    21     8    1
     7     8     9    2
     8     9    10    1
     9    10    11    1
    10    10    12    2
    11    12    13    1
    12    13    14    2
    13    14     1    1
    14     1     2    1
    15     2    26    1
    16    26    28    1
    17    28    29    1
    18    29    30    1
    19    29    32    1
    20    32    33   ar
    21    33    34   ar
    22    34    35   ar
    23    35    36   ar
    24    36    37    1
    25    36    38   ar
    26     2     3    2
    27     3     4    1
    28     4     5    2
    29     5     6    1
    30     6     7    2
    31    14    15    1
    32    15    16    2
    33    16    17    1
    34    21    22    1
    35    22    23    1
    36    23    18    1
    37    17     8    1
    38    16    12    1
    39     6     1    1
    40    38    32   ar
    41    26    27    1
    42    30    31    1
