@<TRIPOS>MOLECULE
*****
 42 45 0 0 0
SMALL
GASTEIGER

@<TRIPOS>ATOM
      1 C          62.7912   89.7032   12.9010 C.3     1  UNL1        0.1484
      2 O          61.5734   89.9523   13.7405 O.3     1  UNL1       -0.3810
      3 H          60.8081   89.5120   13.3387 H       1  UNL1        0.2105
      4 C          62.6860   88.8770   11.6534 C.3     1  UNL1        0.1245
      5 C          60.9912   87.7332   10.0504 C.2     1  UNL1        0.2492
      6 O          59.7506   87.7987    9.2099 O.2     1  UNL1       -0.2699
      7 N          61.4453   88.9425   10.8129 N.am    1  UNL1       -0.2735
      8 C          63.7052   82.3269   12.0908 C.ar    1  UNL1        0.2891
      9 N          64.0343   82.6269   10.6585 N.ar    1  UNL1       -0.1948
     10 C          63.3509   83.9087   10.2844 C.ar    1  UNL1        0.1202
     11 C          63.3159   84.6912    9.0052 C.ar    1  UNL1        0.0225
     12 C          62.5293   85.9661    8.9272 C.ar    1  UNL1        0.0063
     13 C          61.7778   86.4583   10.1285 C.ar    1  UNL1        0.0567
     14 C          61.8129   85.6758   11.4076 C.ar    1  UNL1        0.0437
     15 C          62.5994   84.4010   11.4856 C.ar    1  UNL1        0.1662
     16 O          62.8184   83.4234   12.6020 O.2     1  UNL1       -0.4239
     17 C          63.2359   80.4211   13.7931 C.3     1  UNL1        0.1123
     18 N          64.1796   81.1391   12.8744 N.pl3   1  UNL1       -0.2866
     19 H          65.1103   80.8307   12.7858 H       1  UNL1        0.1512
     20 C          60.6587   90.2174   10.7349 C.3     1  UNL1        0.0937
     21 C          59.3910   90.3659   11.5227 C.3     1  UNL1        0.0199
     22 C          58.8642   89.2102   12.3208 C.3     1  UNL1        0.0018
     23 C          58.6499   91.6700   11.5125 C.3     1  UNL1        0.0018
     24 C          64.1142   90.2804   13.3089 C.3     1  UNL1        0.1075
     25 N          64.7187   91.4028   12.5184 N.am    1  UNL1       -0.2695
     26 C          65.3927   92.5406   13.2261 C.2     1  UNL1        0.4020
     27 O          65.4623   92.5562   14.7244 O.2     1  UNL1       -0.2264
     28 H          64.6730   91.3926   11.5350 H       1  UNL1        0.1528
     29 O          65.9972   93.6630   12.4355 O.3     1  UNL1       -0.4291
     30 C          66.4505   93.4278   11.0252 C.3     1  UNL1        0.2447
     31 C          66.7999   94.5917   10.1458 C.ar    1  UNL1        0.0714
     32 C          67.3992   94.5109    8.7730 C.ar    1  UNL1        0.1053
     33 N          67.5811   95.9099    8.2636 N.ar    1  UNL1       -0.2350
     34 C          67.0942   96.8555    9.3214 C.ar    1  UNL1        0.1343
     35 S          66.6114   96.0407   10.4847 S.2     1  UNL1       -0.0652
     36 C          64.8328   89.7352   14.5074 C.3     1  UNL1        0.0485
     37 C          64.2604   88.5703   15.2594 C.ar    1  UNL1       -0.0204
     38 C          63.3953   88.8060   16.4619 C.ar    1  UNL1       -0.0042
     39 C          62.8229   87.6411   17.2139 C.ar    1  UNL1       -0.0003
     40 C          63.1156   86.2407   16.7634 C.ar    1  UNL1       -0.0000
     41 C          63.9808   86.0050   15.5610 C.ar    1  UNL1       -0.0003
     42 C          64.5532   87.1699   14.8090 C.ar    1  UNL1       -0.0042
@<TRIPOS>BOND
     1    17    18    1
     2    18     8    1
     3     8     9   ar
     4     9    10   ar
     5    10    11   ar
     6    11    12   ar
     7    12    13   ar
     8    13     5    1
     9     5     6    2
    10     5     7   am
    11     7    20    1
    12    20    21    1
    13    21    22    1
    14    21    23    1
    15     7     4    1
    16     4     1    1
    17     1     2    1
    18     1    24    1
    19    24    36    1
    20    36    37    1
    21    37    38   ar
    22    38    39   ar
    23    39    40   ar
    24    40    41   ar
    25    41    42   ar
    26    24    25    1
    27    25    26   am
    28    26    27    2
    29    26    29    1
    30    29    30    1
    31    30    31    1
    32    31    32   ar
    33    32    33   ar
    34    33    34   ar
    35    34    35   ar
    36    13    14   ar
    37    14    15   ar
    38    15    16   ar
    39    16     8   ar
    40    15    10   ar
    41    42    37   ar
    42    35    31   ar
    43    18    19    1
    44     2     3    1
    45    25    28    1
@<TRIPOS>MOLECULE
*****
 42 45 0 0 0
SMALL
GASTEIGER

@<TRIPOS>ATOM
      1 C          63.1895   90.2929   11.5111 C.3     1  UNL1        0.1484
      2 O          63.1352   91.3549   10.4532 O.3     1  UNL1       -0.3810
      3 H          62.5460   91.0687    9.7378 H       1  UNL1        0.2105
      4 C          62.3964   89.0302   11.3478 C.3     1  UNL1        0.1245
      5 C          60.7396   87.8011    9.7685 C.2     1  UNL1        0.2492
      6 O          59.4866   87.8038    8.9439 O.2     1  UNL1       -0.2699
      7 N          61.1435   89.0329   10.5231 N.am    1  UNL1       -0.2735
      8 C          63.5743   82.4200   11.7088 C.ar    1  UNL1        0.2891
      9 N          64.0081   82.8309   10.3330 N.ar    1  UNL1       -0.1948
     10 C          63.2869   84.0974    9.9784 C.ar    1  UNL1        0.1202
     11 C          63.3174   84.9601    8.7517 C.ar    1  UNL1        0.0225
     12 C          62.4683   86.1947    8.6818 C.ar    1  UNL1        0.0063
     13 C          61.5887   86.5665    9.8385 C.ar    1  UNL1        0.0567
     14 C          61.5581   85.7038   11.0652 C.ar    1  UNL1        0.0437
     15 C          62.4072   84.4693   11.1351 C.ar    1  UNL1        0.1662
     16 O          62.5849   83.4325   12.2045 O.2     1  UNL1       -0.4239
     17 C          63.0590   80.3389   13.1763 C.3     1  UNL1        0.1123
     18 N          64.0469   81.2091   12.4574 N.pl3   1  UNL1       -0.2866
     19 H          65.0055   80.9855   12.4769 H       1  UNL1        0.1512
     20 C          60.2943   90.2675   10.4531 C.3     1  UNL1        0.0937
     21 C          59.2644   90.5304   11.5115 C.3     1  UNL1        0.0199
     22 C          58.9087   89.4554   12.4953 C.3     1  UNL1        0.0018
     23 C          58.5901   91.8682   11.5860 C.3     1  UNL1        0.0018
     24 C          64.0370   90.4936   12.7324 C.3     1  UNL1        0.1075
     25 N          64.3886   89.3229   13.6019 N.am    1  UNL1       -0.2695
     26 C          63.5561   89.0086   14.8094 C.2     1  UNL1        0.4020
     27 O          62.3718   89.8650   15.1474 O.2     1  UNL1       -0.2264
     28 H          65.1659   88.7609   13.3801 H       1  UNL1        0.1528
     29 O          63.9077   87.8380   15.6789 O.3     1  UNL1       -0.4291
     30 C          64.6493   86.6697   15.1000 C.3     1  UNL1        0.2447
     31 C          64.0818   85.2866   15.2210 C.ar    1  UNL1        0.0714
     32 C          64.8049   84.0073   14.9195 C.ar    1  UNL1        0.1053
     33 N          63.8615   82.8699   15.1770 N.ar    1  UNL1       -0.2350
     34 C          62.5554   83.4460   15.6375 C.ar    1  UNL1        0.1343
     35 S          62.6916   84.9397   15.6647 S.2     1  UNL1       -0.0652
     36 C          64.5328   91.8648   13.0842 C.3     1  UNL1        0.0485
     37 C          65.7540   92.0240   13.9405 C.ar    1  UNL1       -0.0204
     38 C          65.6107   92.3279   15.4023 C.ar    1  UNL1       -0.0042
     39 C          66.8319   92.4871   16.2586 C.ar    1  UNL1       -0.0003
     40 C          68.1966   92.3424   15.6530 C.ar    1  UNL1       -0.0000
     41 C          68.3399   92.0385   14.1911 C.ar    1  UNL1       -0.0003
     42 C          67.1187   91.8793   13.3349 C.ar    1  UNL1       -0.0042
@<TRIPOS>BOND
     1    17    18    1
     2    18     8    1
     3     8     9   ar
     4     9    10   ar
     5    10    11   ar
     6    11    12   ar
     7    12    13   ar
     8    13     5    1
     9     5     6    2
    10     5     7   am
    11     7    20    1
    12    20    21    1
    13    21    22    1
    14    21    23    1
    15     7     4    1
    16     4     1    1
    17     1     2    1
    18     1    24    1
    19    24    36    1
    20    36    37    1
    21    37    38   ar
    22    38    39   ar
    23    39    40   ar
    24    40    41   ar
    25    41    42   ar
    26    24    25    1
    27    25    26   am
    28    26    27    2
    29    26    29    1
    30    29    30    1
    31    30    31    1
    32    31    32   ar
    33    32    33   ar
    34    33    34   ar
    35    34    35   ar
    36    13    14   ar
    37    14    15   ar
    38    15    16   ar
    39    16     8   ar
    40    15    10   ar
    41    42    37   ar
    42    35    31   ar
    43    18    19    1
    44     2     3    1
    45    25    28    1
@<TRIPOS>MOLECULE
*****
 42 45 0 0 0
SMALL
GASTEIGER

@<TRIPOS>ATOM
      1 C          61.9689   89.3144   11.9667 C.3     1  UNL1        0.1484
      2 O          60.9592   90.0016   12.8374 O.3     1  UNL1       -0.3810
      3 H          61.4172   90.5621   13.4831 H       1  UNL1        0.2105
      4 C          63.4335   89.5566   12.1819 C.3     1  UNL1        0.1245
      5 C          64.1054   90.4172   14.5395 C.2     1  UNL1        0.2492
      6 O          64.5574   91.5322   15.4352 O.2     1  UNL1       -0.2699
      7 N          63.8856   90.6716   13.0777 N.am    1  UNL1       -0.2735
      8 C          63.9082   84.0923   15.3845 C.ar    1  UNL1        0.2891
      9 N          63.3110   84.8423   16.5381 N.ar    1  UNL1       -0.1948
     10 C          63.4083   86.3087   16.2379 C.ar    1  UNL1        0.1202
     11 C          62.9833   87.5218   17.0110 C.ar    1  UNL1        0.0225
     12 C          63.2157   88.8913   16.4448 C.ar    1  UNL1        0.0063
     13 C          63.8730   89.0476   15.1056 C.ar    1  UNL1        0.0567
     14 C          64.2980   87.8345   14.3326 C.ar    1  UNL1        0.0437
     15 C          64.0657   86.4650   14.8987 C.ar    1  UNL1        0.1662
     16 O          64.3746   85.0952   14.3713 O.2     1  UNL1       -0.4239
     17 C          63.2686   81.8770   14.1872 C.3     1  UNL1        0.1123
     18 N          64.0195   82.6012   15.2650 N.pl3   1  UNL1       -0.2866
     19 H          64.5853   82.0978   15.8941 H       1  UNL1        0.1512
     20 C          64.1180   92.0412   12.5115 C.3     1  UNL1        0.0937
     21 C          65.4609   92.4024   11.9494 C.3     1  UNL1        0.0199
     22 C          65.5870   92.8102   10.5114 C.3     1  UNL1        0.0018
     23 C          66.6778   92.3558   12.8253 C.3     1  UNL1        0.0018
     24 C          61.5141   88.3849   10.8808 C.3     1  UNL1        0.1075
     25 N          61.4058   88.8779    9.4682 N.am    1  UNL1       -0.2695
     26 C          60.2683   88.4258    8.6012 C.2     1  UNL1        0.4020
     27 O          59.2390   87.4808    9.1467 O.2     1  UNL1       -0.2264
     28 H          62.0813   89.4981    9.1102 H       1  UNL1        0.1528
     29 O          60.1600   88.9188    7.1887 O.3     1  UNL1       -0.4291
     30 C          58.8490   89.4334    6.6723 C.3     1  UNL1        0.2447
     31 C          58.8234   90.5542    5.6757 C.ar    1  UNL1        0.0714
     32 C          57.5977   91.2512    5.1640 C.ar    1  UNL1        0.1053
     33 N          58.0357   92.3025    4.1878 N.ar    1  UNL1       -0.2350
     34 C          59.5322   92.2553    4.0962 C.ar    1  UNL1        0.1343
     35 S          60.0190   91.1747    5.0158 S.2     1  UNL1       -0.0652
     36 C          61.1676   86.9625   11.2074 C.3     1  UNL1        0.0485
     37 C          62.0414   85.8462   10.7172 C.ar    1  UNL1       -0.0204
     38 C          62.4942   84.7763   11.6660 C.ar    1  UNL1       -0.0042
     39 C          63.3680   83.6599   11.1759 C.ar    1  UNL1       -0.0003
     40 C          63.7890   83.6135    9.7370 C.ar    1  UNL1       -0.0000
     41 C          63.3362   84.6834    8.7882 C.ar    1  UNL1       -0.0003
     42 C          62.4624   85.7997    9.2783 C.ar    1  UNL1       -0.0042
@<TRIPOS>BOND
     1    17    18    1
     2    18     8    1
     3     8     9   ar
     4     9    10   ar
     5    10    11   ar
     6    11    12   ar
     7    12    13   ar
     8    13     5    1
     9     5     6    2
    10     5     7   am
    11     7    20    1
    12    20    21    1
    13    21    22    1
    14    21    23    1
    15     7     4    1
    16     4     1    1
    17     1     2    1
    18     1    24    1
    19    24    36    1
    20    36    37    1
    21    37    38   ar
    22    38    39   ar
    23    39    40   ar
    24    40    41   ar
    25    41    42   ar
    26    24    25    1
    27    25    26   am
    28    26    27    2
    29    26    29    1
    30    29    30    1
    31    30    31    1
    32    31    32   ar
    33    32    33   ar
    34    33    34   ar
    35    34    35   ar
    36    13    14   ar
    37    14    15   ar
    38    15    16   ar
    39    16     8   ar
    40    15    10   ar
    41    42    37   ar
    42    35    31   ar
    43    18    19    1
    44     2     3    1
    45    25    28    1
@<TRIPOS>MOLECULE
*****
 42 45 0 0 0
SMALL
GASTEIGER

@<TRIPOS>ATOM
      1 C          63.4828   87.8091   13.0258 C.3     1  UNL1        0.1484
      2 O          63.1534   88.9068   12.0580 O.3     1  UNL1       -0.3810
      3 H          63.5074   89.7469   12.3893 H       1  UNL1        0.2105
      4 C          64.2512   88.1176   14.2766 C.3     1  UNL1        0.1245
      5 C          63.9219   90.3962   15.4806 C.2     1  UNL1        0.2492
      6 O          63.2875   91.2107   16.5688 O.2     1  UNL1       -0.2699
      7 N          63.6168   88.9322   15.3648 N.am    1  UNL1       -0.2735
      8 C          66.3786   93.3706   10.3940 C.ar    1  UNL1        0.2891
      9 N          67.4209   93.0360   11.4194 N.ar    1  UNL1       -0.1948
     10 C          66.7404   92.3449   12.5637 C.ar    1  UNL1        0.1202
     11 C          67.2638   91.7878   13.8543 C.ar    1  UNL1        0.0225
     12 C          66.3243   91.1383   14.8266 C.ar    1  UNL1        0.0063
     13 C          64.8614   91.0458   14.5083 C.ar    1  UNL1        0.0567
     14 C          64.3379   91.6028   13.2177 C.ar    1  UNL1        0.0437
     15 C          65.2774   92.2524   12.2454 C.ar    1  UNL1        0.1662
     16 O          65.0539   92.8863   10.9044 O.2     1  UNL1       -0.4239
     17 C          67.7139   95.0856    8.9707 C.3     1  UNL1        0.1123
     18 N          66.6188   94.0673    9.0874 N.pl3   1  UNL1       -0.2866
     19 H          66.0577   93.8561    8.3065 H       1  UNL1        0.1512
     20 C          62.6773   88.2826   16.3372 C.3     1  UNL1        0.0937
     21 C          63.0937   87.0394   17.0660 C.3     1  UNL1        0.0199
     22 C          63.8883   85.9841   16.3555 C.3     1  UNL1        0.0018
     23 C          62.7154   86.8516   18.5054 C.3     1  UNL1        0.0018
     24 C          63.0439   86.4030   12.7428 C.3     1  UNL1        0.1075
     25 N          61.7945   86.1522   11.9514 N.am    1  UNL1       -0.2695
     26 C          61.8169   86.2721   10.4564 C.2     1  UNL1        0.4020
     27 O          63.0886   86.6429    9.7527 O.2     1  UNL1       -0.2264
     28 H          60.9598   85.9088   12.4133 H       1  UNL1        0.1528
     29 O          60.5675   86.0213    9.6651 O.3     1  UNL1       -0.4291
     30 C          59.6706   87.1658    9.2967 C.3     1  UNL1        0.2447
     31 C          59.7676   88.4644   10.0412 C.ar    1  UNL1        0.0714
     32 C          60.2978   89.7567    9.4945 C.ar    1  UNL1        0.1053
     33 N          60.2093   90.7897   10.5785 N.ar    1  UNL1       -0.2350
     34 C          59.6244   90.1358   11.7953 C.ar    1  UNL1        0.1343
     35 S          59.3514   88.6987   11.4631 S.2     1  UNL1       -0.0652
     36 C          63.8543   85.2477   13.2511 C.3     1  UNL1        0.0485
     37 C          63.3129   83.8520   13.1554 C.ar    1  UNL1       -0.0204
     38 C          63.5278   83.0482   11.9074 C.ar    1  UNL1       -0.0042
     39 C          62.9864   81.6526   11.8117 C.ar    1  UNL1       -0.0003
     40 C          62.2302   81.0608   12.9640 C.ar    1  UNL1       -0.0000
     41 C          62.0153   81.8647   14.2120 C.ar    1  UNL1       -0.0003
     42 C          62.5567   83.2603   14.3077 C.ar    1  UNL1       -0.0042
@<TRIPOS>BOND
     1    17    18    1
     2    18     8    1
     3     8     9   ar
     4     9    10   ar
     5    10    11   ar
     6    11    12   ar
     7    12    13   ar
     8    13     5    1
     9     5     6    2
    10     5     7   am
    11     7    20    1
    12    20    21    1
    13    21    22    1
    14    21    23    1
    15     7     4    1
    16     4     1    1
    17     1     2    1
    18     1    24    1
    19    24    36    1
    20    36    37    1
    21    37    38   ar
    22    38    39   ar
    23    39    40   ar
    24    40    41   ar
    25    41    42   ar
    26    24    25    1
    27    25    26   am
    28    26    27    2
    29    26    29    1
    30    29    30    1
    31    30    31    1
    32    31    32   ar
    33    32    33   ar
    34    33    34   ar
    35    34    35   ar
    36    13    14   ar
    37    14    15   ar
    38    15    16   ar
    39    16     8   ar
    40    15    10   ar
    41    42    37   ar
    42    35    31   ar
    43    18    19    1
    44     2     3    1
    45    25    28    1
@<TRIPOS>MOLECULE
*****
 42 45 0 0 0
SMALL
GASTEIGER

@<TRIPOS>ATOM
      1 C          62.3802   85.6232   11.5259 C.3     1  UNL1        0.1484
      2 O          63.1294   84.9990   10.3862 O.3     1  UNL1       -0.3810
      3 H          63.3664   84.0869   10.6160 H       1  UNL1        0.2105
      4 C          62.1128   84.8308   12.7712 C.3     1  UNL1        0.1245
      5 C          63.9450   84.2176   14.5081 C.2     1  UNL1        0.2492
      6 O          64.9777   83.2596   15.0236 O.2     1  UNL1       -0.2699
      7 N          63.1454   83.8728   13.2868 N.am    1  UNL1       -0.2735
      8 C          63.8698   90.4061   16.0746 C.ar    1  UNL1        0.2891
      9 N          63.1694   89.5510   17.0886 N.ar    1  UNL1       -0.1948
     10 C          63.2458   88.1262   16.6256 C.ar    1  UNL1        0.1202
     11 C          62.7312   86.8488   17.2199 C.ar    1  UNL1        0.0225
     12 C          62.9643   85.5459   16.5141 C.ar    1  UNL1        0.0063
     13 C          63.7120   85.5206   15.2139 C.ar    1  UNL1        0.0567
     14 C          64.2266   86.7980   14.6196 C.ar    1  UNL1        0.0437
     15 C          63.9935   88.1008   15.3255 C.ar    1  UNL1        0.1662
     16 O          64.3792   89.5099   14.9850 O.2     1  UNL1       -0.4239
     17 C          65.3702   92.4910   16.4645 C.3     1  UNL1        0.1123
     18 N          64.0324   91.8959   16.1390 N.pl3   1  UNL1       -0.2866
     19 H          63.2610   92.4831   15.9677 H       1  UNL1        0.1512
     20 C          63.3785   82.5698   12.5809 C.3     1  UNL1        0.0937
     21 C          62.5710   81.3612   12.9514 C.3     1  UNL1        0.0199
     22 C          62.7066   80.0962   12.1570 C.3     1  UNL1        0.0018
     23 C          61.6278   81.4177   14.1165 C.3     1  UNL1        0.0018
     24 C          61.8983   87.0398   11.4204 C.3     1  UNL1        0.1075
     25 N          62.8480   88.1751   11.6638 N.am    1  UNL1       -0.2695
     26 C          62.3413   89.4686   12.2296 C.2     1  UNL1        0.4020
     27 O          60.8849   89.6268   12.5520 O.2     1  UNL1       -0.2264
     28 H          63.8039   88.0713   11.4522 H       1  UNL1        0.1528
     29 O          63.2910   90.6039   12.4730 O.3     1  UNL1       -0.4291
     30 C          63.9685   91.2762   11.3158 C.3     1  UNL1        0.2447
     31 C          65.0390   92.2973   11.5636 C.ar    1  UNL1        0.0714
     32 C          65.9092   92.3844   12.7824 C.ar    1  UNL1        0.1053
     33 N          66.8352   93.5515   12.6083 N.ar    1  UNL1       -0.2350
     34 C          66.5374   94.1857   11.2819 C.ar    1  UNL1        0.1343
     35 S          65.4272   93.4105   10.6363 S.2     1  UNL1       -0.0652
     36 C          60.4668   87.3210   11.0716 C.3     1  UNL1        0.0485
     37 C          60.0929   87.6684    9.6611 C.ar    1  UNL1       -0.0204
     38 C          59.6768   86.5877    8.7077 C.ar    1  UNL1       -0.0042
     39 C          59.3029   86.9351    7.2972 C.ar    1  UNL1       -0.0003
     40 C          59.3451   88.3631    6.8400 C.ar    1  UNL1       -0.0000
     41 C          59.7613   89.4437    7.7934 C.ar    1  UNL1       -0.0003
     42 C          60.1352   89.0964    9.2039 C.ar    1  UNL1       -0.0042
@<TRIPOS>BOND
     1    17    18    1
     2    18     8    1
     3     8     9   ar
     4     9    10   ar
     5    10    11   ar
     6    11    12   ar
     7    12    13   ar
     8    13     5    1
     9     5     6    2
    10     5     7   am
    11     7    20    1
    12    20    21    1
    13    21    22    1
    14    21    23    1
    15     7     4    1
    16     4     1    1
    17     1     2    1
    18     1    24    1
    19    24    36    1
    20    36    37    1
    21    37    38   ar
    22    38    39   ar
    23    39    40   ar
    24    40    41   ar
    25    41    42   ar
    26    24    25    1
    27    25    26   am
    28    26    27    2
    29    26    29    1
    30    29    30    1
    31    30    31    1
    32    31    32   ar
    33    32    33   ar
    34    33    34   ar
    35    34    35   ar
    36    13    14   ar
    37    14    15   ar
    38    15    16   ar
    39    16     8   ar
    40    15    10   ar
    41    42    37   ar
    42    35    31   ar
    43    18    19    1
    44     2     3    1
    45    25    28    1
@<TRIPOS>MOLECULE
*****
 42 45 0 0 0
SMALL
GASTEIGER

@<TRIPOS>ATOM
      1 C          62.7250   89.3068   12.2654 C.3     1  UNL1        0.1484
      2 O          62.1965   90.6846   11.9965 O.3     1  UNL1       -0.3810
      3 H          62.6977   91.3307   12.5183 H       1  UNL1        0.2105
      4 C          63.8630   89.1138   13.2234 C.3     1  UNL1        0.1245
      5 C          64.6390   90.9806   14.8552 C.2     1  UNL1        0.2492
      6 O          64.5955   91.6219   16.2105 O.2     1  UNL1       -0.2699
      7 N          63.8195   89.7551   14.5787 N.am    1  UNL1       -0.2735
      8 C          66.6961   94.0272    9.6356 C.ar    1  UNL1        0.2891
      9 N          67.8189   93.4191   10.4227 N.ar    1  UNL1       -0.1948
     10 C          67.2283   92.7332   11.6189 C.ar    1  UNL1        0.1202
     11 C          67.8531   91.9647   12.7453 C.ar    1  UNL1        0.0225
     12 C          66.9900   91.3805   13.8241 C.ar    1  UNL1        0.0063
     13 C          65.5021   91.5648   13.7763 C.ar    1  UNL1        0.0567
     14 C          64.8774   92.3333   12.6498 C.ar    1  UNL1        0.0437
     15 C          65.7405   92.9175   11.5711 C.ar    1  UNL1        0.1662
     16 O          65.4116   93.7172   10.3454 O.2     1  UNL1       -0.4239
     17 C          67.2424   96.2507    8.4078 C.3     1  UNL1        0.1123
     18 N          66.8337   94.8082    8.3624 N.pl3   1  UNL1       -0.2866
     19 H          66.6558   94.3740    7.4969 H       1  UNL1        0.1512
     20 C          62.9564   89.1708   15.6575 C.3     1  UNL1        0.0937
     21 C          63.2924   87.8317   16.2439 C.3     1  UNL1        0.0199
     22 C          62.7877   87.4620   17.6072 C.3     1  UNL1        0.0018
     23 C          64.1331   86.8623   15.4670 C.3     1  UNL1        0.0018
     24 C          62.1155   88.1220   11.5763 C.3     1  UNL1        0.1075
     25 N          62.9711   86.9459   11.2092 N.am    1  UNL1       -0.2695
     26 C          62.8301   85.6533   11.9570 C.2     1  UNL1        0.4020
     27 O          61.8336   85.5368   13.0721 O.2     1  UNL1       -0.2264
     28 H          63.6252   87.0224   10.4773 H       1  UNL1        0.1528
     29 O          63.6857   84.4772   11.5899 O.3     1  UNL1       -0.4291
     30 C          64.2044   83.5637   12.6606 C.3     1  UNL1        0.2447
     31 C          63.3502   82.4387   13.1652 C.ar    1  UNL1        0.0714
     32 C          62.5105   82.4581   14.4081 C.ar    1  UNL1        0.1053
     33 N          61.8270   81.1282   14.5265 N.ar    1  UNL1       -0.2350
     34 C          62.2442   80.2867   13.3569 C.ar    1  UNL1        0.1343
     35 S          63.1856   81.0967   12.5155 S.2     1  UNL1       -0.0652
     36 C          60.6505   88.1134   11.2544 C.3     1  UNL1        0.0485
     37 C          60.1968   88.0607    9.8256 C.ar    1  UNL1       -0.0204
     38 C          60.1170   89.3216    9.0171 C.ar    1  UNL1       -0.0042
     39 C          59.6633   89.2689    7.5884 C.ar    1  UNL1       -0.0003
     40 C          59.2895   87.9554    6.9681 C.ar    1  UNL1       -0.0000
     41 C          59.3694   86.6945    7.7766 C.ar    1  UNL1       -0.0003
     42 C          59.8230   86.7472    9.2053 C.ar    1  UNL1       -0.0042
@<TRIPOS>BOND
     1    17    18    1
     2    18     8    1
     3     8     9   ar
     4     9    10   ar
     5    10    11   ar
     6    11    12   ar
     7    12    13   ar
     8    13     5    1
     9     5     6    2
    10     5     7   am
    11     7    20    1
    12    20    21    1
    13    21    22    1
    14    21    23    1
    15     7     4    1
    16     4     1    1
    17     1     2    1
    18     1    24    1
    19    24    36    1
    20    36    37    1
    21    37    38   ar
    22    38    39   ar
    23    39    40   ar
    24    40    41   ar
    25    41    42   ar
    26    24    25    1
    27    25    26   am
    28    26    27    2
    29    26    29    1
    30    29    30    1
    31    30    31    1
    32    31    32   ar
    33    32    33   ar
    34    33    34   ar
    35    34    35   ar
    36    13    14   ar
    37    14    15   ar
    38    15    16   ar
    39    16     8   ar
    40    15    10   ar
    41    42    37   ar
    42    35    31   ar
    43    18    19    1
    44     2     3    1
    45    25    28    1
@<TRIPOS>MOLECULE
*****
 42 45 0 0 0
SMALL
GASTEIGER

@<TRIPOS>ATOM
      1 C          63.5193   89.7981   13.4476 C.3     1  UNL1        0.1484
      2 O          62.1076   90.0642   13.8792 O.3     1  UNL1       -0.3810
      3 H          61.5593   89.2870   13.6888 H       1  UNL1        0.2105
      4 C          63.8786   88.4796   12.8292 C.3     1  UNL1        0.1245
      5 C          63.0294   86.0356   13.0653 C.2     1  UNL1        0.2492
      6 O          62.9099   84.7737   13.8673 O.2     1  UNL1       -0.2699
      7 N          63.7591   87.2176   13.6312 N.am    1  UNL1       -0.2735
      8 C          59.6178   87.8317    7.9768 C.ar    1  UNL1        0.2891
      9 N          60.4425   86.6076    7.7094 N.ar    1  UNL1       -0.1948
     10 C          61.1985   86.2753    8.9616 C.ar    1  UNL1        0.1202
     11 C          62.1661   85.1767    9.2881 C.ar    1  UNL1        0.0225
     12 C          62.7764   85.0968   10.6560 C.ar    1  UNL1        0.0063
     13 C          62.4190   86.1155   11.6973 C.ar    1  UNL1        0.0567
     14 C          61.4514   87.2142   11.3708 C.ar    1  UNL1        0.0437
     15 C          60.8411   87.2940   10.0029 C.ar    1  UNL1        0.1662
     16 O          59.8642   88.2559    9.3943 O.2     1  UNL1       -0.4239
     17 C          59.1716   89.7366    6.2673 C.3     1  UNL1        0.1123
     18 N          58.7068   88.5121    6.9985 N.pl3   1  UNL1       -0.2866
     19 H          57.8038   88.1550    6.8363 H       1  UNL1        0.1512
     20 C          64.3694   87.1377   14.9991 C.3     1  UNL1        0.0937
     21 C          63.4997   87.2498   16.2161 C.3     1  UNL1        0.0199
     22 C          63.0094   86.0105   16.9043 C.3     1  UNL1        0.0018
     23 C          63.1204   88.6014   16.7449 C.3     1  UNL1        0.0018
     24 C          64.5717   90.8505   13.6345 C.3     1  UNL1        0.1075
     25 N          65.0706   91.6302   12.4541 N.am    1  UNL1       -0.2695
     26 C          64.1695   91.8715   11.2795 C.2     1  UNL1        0.4020
     27 O          62.7694   91.3331   11.2852 O.2     1  UNL1       -0.2264
     28 H          65.9895   91.9835   12.4503 H       1  UNL1        0.1528
     29 O          64.6684   92.6511   10.0991 O.3     1  UNL1       -0.4291
     30 C          66.1012   93.0912   10.0422 C.3     1  UNL1        0.2447
     31 C          66.4389   94.5523   10.0745 C.ar    1  UNL1        0.0714
     32 C          66.1551   95.4981   11.2037 C.ar    1  UNL1        0.1053
     33 N          66.6604   96.8545   10.8103 N.ar    1  UNL1       -0.2350
     34 C          67.2565   96.7471    9.4380 C.ar    1  UNL1        0.1343
     35 S          67.1195   95.3242    8.9832 S.2     1  UNL1       -0.0652
     36 C          65.1252   91.1233   15.0017 C.3     1  UNL1        0.0485
     37 C          66.4585   91.7940   15.1509 C.ar    1  UNL1       -0.0204
     38 C          66.6893   92.7630   16.2724 C.ar    1  UNL1       -0.0042
     39 C          68.0226   93.4337   16.4217 C.ar    1  UNL1       -0.0003
     40 C          69.1252   93.1356   15.4494 C.ar    1  UNL1       -0.0000
     41 C          68.8944   92.1667   14.3279 C.ar    1  UNL1       -0.0003
     42 C          67.5611   91.4959   14.1786 C.ar    1  UNL1       -0.0042
@<TRIPOS>BOND
     1    17    18    1
     2    18     8    1
     3     8     9   ar
     4     9    10   ar
     5    10    11   ar
     6    11    12   ar
     7    12    13   ar
     8    13     5    1
     9     5     6    2
    10     5     7   am
    11     7    20    1
    12    20    21    1
    13    21    22    1
    14    21    23    1
    15     7     4    1
    16     4     1    1
    17     1     2    1
    18     1    24    1
    19    24    36    1
    20    36    37    1
    21    37    38   ar
    22    38    39   ar
    23    39    40   ar
    24    40    41   ar
    25    41    42   ar
    26    24    25    1
    27    25    26   am
    28    26    27    2
    29    26    29    1
    30    29    30    1
    31    30    31    1
    32    31    32   ar
    33    32    33   ar
    34    33    34   ar
    35    34    35   ar
    36    13    14   ar
    37    14    15   ar
    38    15    16   ar
    39    16     8   ar
    40    15    10   ar
    41    42    37   ar
    42    35    31   ar
    43    18    19    1
    44     2     3    1
    45    25    28    1
@<TRIPOS>MOLECULE
*****
 42 45 0 0 0
SMALL
GASTEIGER

@<TRIPOS>ATOM
      1 C          63.1406   90.9125   10.8284 C.3     1  UNL1        0.1484
      2 O          63.0288   91.9745    9.7750 O.3     1  UNL1       -0.3810
      3 H          63.8564   92.4789    9.7352 H       1  UNL1        0.2105
      4 C          64.4063   90.7727   11.6211 C.3     1  UNL1        0.1245
      5 C          65.0061   91.9139   13.8768 C.2     1  UNL1        0.2492
      6 O          65.5505   93.0889   14.6338 O.2     1  UNL1       -0.2699
      7 N          64.9508   91.9477   12.3782 N.am    1  UNL1       -0.2735
      8 C          63.8616   85.9119   15.7268 C.ar    1  UNL1        0.2891
      9 N          63.2077   86.9212   16.6233 N.ar    1  UNL1       -0.1948
     10 C          63.5387   88.2880   16.1015 C.ar    1  UNL1        0.1202
     11 C          63.1694   89.6612   16.5789 C.ar    1  UNL1        0.0225
     12 C          63.6585   90.8698   15.8373 C.ar    1  UNL1        0.0063
     13 C          64.5170   90.7052   14.6184 C.ar    1  UNL1        0.0567
     14 C          64.8864   89.3321   14.1410 C.ar    1  UNL1        0.0437
     15 C          64.3972   88.1235   14.8826 C.ar    1  UNL1        0.1662
     16 O          64.5968   86.6550   14.6510 O.2     1  UNL1       -0.4239
     17 C          62.5646   83.6788   15.4425 C.3     1  UNL1        0.1123
     18 N          63.7925   84.4213   15.8793 N.pl3   1  UNL1       -0.2866
     19 H          64.5530   83.9302   16.2662 H       1  UNL1        0.1512
     20 C          65.4399   93.1564   11.6366 C.3     1  UNL1        0.0937
     21 C          66.6638   93.0629   10.7744 C.3     1  UNL1        0.0199
     22 C          66.8249   93.9803    9.5987 C.3     1  UNL1        0.0018
     23 C          67.7267   92.0519   11.0881 C.3     1  UNL1        0.0018
     24 C          61.9866   89.9903   11.0891 C.3     1  UNL1        0.1075
     25 N          62.1660   88.7983   11.9819 N.am    1  UNL1       -0.2695
     26 C          62.5658   87.4764   11.3966 C.2     1  UNL1        0.4020
     27 O          62.7862   87.3463    9.9186 O.2     1  UNL1       -0.2264
     28 H          62.0214   88.8836   12.9519 H       1  UNL1        0.1528
     29 O          62.7452   86.2843   12.2894 O.3     1  UNL1       -0.4291
     30 C          62.0743   84.9861   11.9510 C.3     1  UNL1        0.2447
     31 C          62.8884   83.8284   11.4542 C.ar    1  UNL1        0.0714
     32 C          63.9099   83.8753   10.3567 C.ar    1  UNL1        0.1053
     33 N          64.4768   82.4963   10.1918 N.ar    1  UNL1       -0.2350
     34 C          63.8057   81.5972   11.1874 C.ar    1  UNL1        0.1343
     35 S          62.8240   82.4205   11.9676 S.2     1  UNL1       -0.0652
     36 C          60.6533   90.2601   10.4570 C.3     1  UNL1        0.0485
     37 C          60.1066   89.3160    9.4276 C.ar    1  UNL1       -0.0204
     38 C          59.6938   87.9299    9.8252 C.ar    1  UNL1       -0.0042
     39 C          59.1470   86.9858    8.7958 C.ar    1  UNL1       -0.0003
     40 C          59.0130   87.4279    7.3687 C.ar    1  UNL1       -0.0000
     41 C          59.4258   88.8140    6.9711 C.ar    1  UNL1       -0.0003
     42 C          59.9726   89.7581    8.0005 C.ar    1  UNL1       -0.0042
@<TRIPOS>BOND
     1    17    18    1
     2    18     8    1
     3     8     9   ar
     4     9    10   ar
     5    10    11   ar
     6    11    12   ar
     7    12    13   ar
     8    13     5    1
     9     5     6    2
    10     5     7   am
    11     7    20    1
    12    20    21    1
    13    21    22    1
    14    21    23    1
    15     7     4    1
    16     4     1    1
    17     1     2    1
    18     1    24    1
    19    24    36    1
    20    36    37    1
    21    37    38   ar
    22    38    39   ar
    23    39    40   ar
    24    40    41   ar
    25    41    42   ar
    26    24    25    1
    27    25    26   am
    28    26    27    2
    29    26    29    1
    30    29    30    1
    31    30    31    1
    32    31    32   ar
    33    32    33   ar
    34    33    34   ar
    35    34    35   ar
    36    13    14   ar
    37    14    15   ar
    38    15    16   ar
    39    16     8   ar
    40    15    10   ar
    41    42    37   ar
    42    35    31   ar
    43    18    19    1
    44     2     3    1
    45    25    28    1
@<TRIPOS>MOLECULE
*****
 42 45 0 0 0
SMALL
GASTEIGER

@<TRIPOS>ATOM
      1 C          62.9818   85.7349   12.3153 C.3     1  UNL1        0.1484
      2 O          62.0204   84.7600   11.7027 O.3     1  UNL1       -0.3810
      3 H          61.4802   85.2135   11.0369 H       1  UNL1        0.2105
      4 C          62.9895   87.1652   11.8632 C.3     1  UNL1        0.1245
      5 C          61.7139   89.1875   10.8470 C.2     1  UNL1        0.2492
      6 O          60.5566   89.7328   10.0637 O.2     1  UNL1       -0.2699
      7 N          61.8323   87.7105   11.0800 N.am    1  UNL1       -0.2735
      8 C          65.6115   92.3910   14.7590 C.ar    1  UNL1        0.2891
      9 N          65.7869   92.7904   13.3238 N.ar    1  UNL1       -0.1948
     10 C          64.8302   91.9829   12.4976 C.ar    1  UNL1        0.1202
     11 C          64.5581   91.9496   11.0229 C.ar    1  UNL1        0.0225
     12 C          63.5194   91.0179   10.4727 C.ar    1  UNL1        0.0063
     13 C          62.7527   90.1193   11.3972 C.ar    1  UNL1        0.0567
     14 C          63.0247   90.1525   12.8720 C.ar    1  UNL1        0.0437
     15 C          64.0635   91.0843   13.4221 C.ar    1  UNL1        0.1662
     16 O          64.5463   91.3365   14.8197 O.2     1  UNL1       -0.4239
     17 C          67.8345   92.6679   16.0747 C.3     1  UNL1        0.1123
     18 N          66.3683   92.9481   15.9281 N.pl3   1  UNL1       -0.2866
     19 H          65.9026   93.4977   16.5992 H       1  UNL1        0.1512
     20 C          60.7935   86.7787   10.5297 C.3     1  UNL1        0.0937
     21 C          60.7700   86.4635    9.0634 C.3     1  UNL1        0.0199
     22 C          61.9774   85.8642    8.4056 C.3     1  UNL1        0.0018
     23 C          59.5389   86.7478    8.2548 C.3     1  UNL1        0.0018
     24 C          63.9354   85.2796   13.3798 C.3     1  UNL1        0.1075
     25 N          64.2109   83.8166   13.5641 N.am    1  UNL1       -0.2695
     26 C          63.2011   82.9437   14.2485 C.2     1  UNL1        0.4020
     27 O          61.9159   83.5337   14.7486 O.2     1  UNL1       -0.2264
     28 H          65.0544   83.4294   13.2359 H       1  UNL1        0.1528
     29 O          63.4766   81.4807   14.4328 O.3     1  UNL1       -0.4291
     30 C          62.6721   80.4651   13.6771 C.3     1  UNL1        0.2447
     31 C          62.8093   80.3573   12.1873 C.ar    1  UNL1        0.0714
     32 C          63.1605   81.4754   11.2510 C.ar    1  UNL1        0.1053
     33 N          63.1876   80.9217    9.8573 N.ar    1  UNL1       -0.2350
     34 C          62.8532   79.4613    9.9320 C.ar    1  UNL1        0.1343
     35 S          62.6194   79.1125   11.3722 S.2     1  UNL1       -0.0652
     36 C          64.6136   86.2872   14.2600 C.3     1  UNL1        0.0485
     37 C          63.9466   86.7511   15.5209 C.ar    1  UNL1       -0.0204
     38 C          63.7352   88.2164   15.7622 C.ar    1  UNL1       -0.0042
     39 C          63.0682   88.6804   17.0231 C.ar    1  UNL1       -0.0003
     40 C          62.6126   87.6790   18.0427 C.ar    1  UNL1       -0.0000
     41 C          62.8240   86.2138   17.8015 C.ar    1  UNL1       -0.0003
     42 C          63.4910   85.7498   16.5406 C.ar    1  UNL1       -0.0042
@<TRIPOS>BOND
     1    17    18    1
     2    18     8    1
     3     8     9   ar
     4     9    10   ar
     5    10    11   ar
     6    11    12   ar
     7    12    13   ar
     8    13     5    1
     9     5     6    2
    10     5     7   am
    11     7    20    1
    12    20    21    1
    13    21    22    1
    14    21    23    1
    15     7     4    1
    16     4     1    1
    17     1     2    1
    18     1    24    1
    19    24    36    1
    20    36    37    1
    21    37    38   ar
    22    38    39   ar
    23    39    40   ar
    24    40    41   ar
    25    41    42   ar
    26    24    25    1
    27    25    26   am
    28    26    27    2
    29    26    29    1
    30    29    30    1
    31    30    31    1
    32    31    32   ar
    33    32    33   ar
    34    33    34   ar
    35    34    35   ar
    36    13    14   ar
    37    14    15   ar
    38    15    16   ar
    39    16     8   ar
    40    15    10   ar
    41    42    37   ar
    42    35    31   ar
    43    18    19    1
    44     2     3    1
    45    25    28    1
