@<TRIPOS>MOLECULE
*****
 36 39 0 0 0
SMALL
GASTEIGER

@<TRIPOS>ATOM
      1 C          63.9436   89.7441   12.2040 C.ar    1  UNL1       -0.0223
      2 C          64.2084   88.9613   13.4558 C.ar    1  UNL1       -0.0030
      3 C          63.6762   87.5657   13.5944 C.ar    1  UNL1        0.0143
      4 C          62.8792   86.9530   12.4812 C.ar    1  UNL1        0.0502
      5 C          62.6145   87.7357   11.2294 C.ar    1  UNL1        0.0089
      6 C          63.1467   89.1313   11.0908 C.ar    1  UNL1       -0.0034
      7 C          66.0724   95.3262   11.6496 C.2     1  UNL1        0.2420
      8 O          66.6995   96.0103   12.8281 O.2     1  UNL1       -0.2734
      9 N          65.5402   93.9307   11.7882 N.am    1  UNL1       -0.2784
     10 C          64.9131   93.2467   10.6098 C.3     1  UNL1        0.0938
     11 C          64.3809   91.8511   10.7484 C.3     1  UNL1        0.0259
     12 C          64.4758   91.1396   12.0654 C.3     1  UNL1        0.0257
     13 C          65.1029   91.8236   13.2439 C.3     1  UNL1        0.0259
     14 C          65.6351   93.2192   13.1053 C.3     1  UNL1        0.0938
     15 C          65.9775   96.0378   10.3326 C.3     1  UNL1        0.1587
     16 C          67.9165   94.6192    9.3437 C.3     1  UNL1        0.0900
     17 N          67.0387   95.8344    9.2921 N.3     1  UNL1       -0.2626
     18 C          67.2220   96.8463    8.2001 C.3     1  UNL1        0.0900
     19 C          61.8175   87.1230   10.1161 C.2     1  UNL1       -0.0253
     20 C          60.3699   87.4778    9.9465 C.2     1  UNL1       -0.0303
     21 C          59.5729   86.8651    8.8333 C.3     1  UNL1        0.0257
     22 C          60.2235   85.8975    7.8895 C.3     1  UNL1        0.0050
     23 C          61.6710   85.5427    8.0590 C.3     1  UNL1        0.0050
     24 C          62.4680   86.1555    9.1723 C.3     1  UNL1        0.0261
     25 N          62.3470   85.5574   12.6198 N.am    1  UNL1       -0.2779
     26 C          63.2269   84.4694   13.1601 C.2     1  UNL1        0.2837
     27 O          64.6391   84.7769   13.5618 O.2     1  UNL1       -0.2665
     28 H          61.4202   85.3556   12.3561 H       1  UNL1        0.1553
     29 C          62.6947   83.0738   13.2987 C.ar    1  UNL1        0.1959
     30 N          61.3515   82.6928   13.8469 N.ar    1  UNL1       -0.2123
     31 C          61.2389   81.1978   13.8004 C.ar    1  UNL1        0.1678
     32 C          62.5126   80.6548   13.2234 C.ar    1  UNL1        0.1036
     33 N          63.4124   81.8142   12.9133 N.ar    1  UNL1       -0.3319
     34 H          64.3153   81.7583   12.5250 H       1  UNL1        0.1676
     35 C          60.0598   80.3879   14.2517 C.1     1  UNL1        0.1214
     36 N          58.8806   79.5781   14.7029 N.1     1  UNL1       -0.1892
@<TRIPOS>BOND
     1    16    17    1
     2    17    18    1
     3    17    15    1
     4    15     7    1
     5     7     8    2
     6     7     9   am
     7     9    10    1
     8    10    11    1
     9    11    12    1
    10    12     1    1
    11     1     2   ar
    12     2     3   ar
    13     3     4   ar
    14     4    25    1
    15    25    26   am
    16    26    27    2
    17    26    29    1
    18    29    30   ar
    19    30    31   ar
    20    31    35    1
    21    35    36    3
    22    31    32   ar
    23    32    33   ar
    24     4     5   ar
    25     5    19    1
    26    19    20    2
    27    20    21    1
    28    21    22    1
    29    22    23    1
    30    23    24    1
    31     5     6   ar
    32    12    13    1
    33    13    14    1
    34    14     9    1
    35     6     1   ar
    36    33    29   ar
    37    24    19    1
    38    25    28    1
    39    33    34    1
