@<TRIPOS>MOLECULE
*****
 45 49 0 0 0
SMALL
GASTEIGER

@<TRIPOS>ATOM
      1 C          63.3765   90.1683   14.8808 C.2     1  UNL1        0.3851
      2 N          63.5573   91.6026   15.2808 N.am    1  UNL1        0.0007
      3 N          64.4130   89.1496   15.2524 N.pl3   1  UNL1       -0.2438
      4 H          65.3456   89.4278   15.4007 H       1  UNL1        0.2647
      5 C          63.5492   81.5037   13.6976 C.3     1  UNL1        0.0725
      6 C          63.5769   82.9020   14.2399 C.ar    1  UNL1        0.1233
      7 C          64.1767   84.0985   13.5628 C.ar    1  UNL1        0.0361
      8 C          63.9802   85.2853   14.4590 C.ar    1  UNL1        0.0400
      9 C          64.3649   86.7277   14.3131 C.ar    1  UNL1        0.0365
     10 C          64.0283   87.7071   15.3983 C.ar    1  UNL1        0.1168
     11 C          63.3071   87.2439   16.6292 C.ar    1  UNL1        0.0365
     12 C          62.9224   85.8015   16.7751 C.ar    1  UNL1        0.0404
     13 C          63.2590   84.8222   15.6900 C.ar    1  UNL1        0.1450
     14 O          63.0097   83.3492   15.5546 O.2     1  UNL1       -0.4577
     15 C          64.7746   92.0183   16.0525 C.2     1  UNL1        0.3433
     16 O          64.6733   92.2887   17.5244 O.2     1  UNL1       -0.2483
     17 C          66.0932   92.1635   15.3523 C.ar    1  UNL1        0.0920
     18 C          67.3568   92.2881   16.1508 C.ar    1  UNL1        0.1050
     19 N          68.6753   92.4333   15.4506 N.ar    1  UNL1       -0.2420
     20 C          68.7302   92.4540   13.9517 C.ar    1  UNL1        0.1034
     21 C          67.4666   92.3295   13.1531 C.ar    1  UNL1        0.0725
     22 C          66.1481   92.1842   13.8534 C.ar    1  UNL1        0.0137
     23 C          67.5215   92.3501   11.6543 C.2     1  UNL1        0.2443
     24 N          68.8064   92.0370   10.9465 N.am    1  UNL1       -0.3253
     25 O          66.2916   92.6840   10.8633 O.2     1  UNL1       -0.2703
     26 H          69.6137   91.8179   11.4657 H       1  UNL1        0.1453
     27 H          68.8425   92.0505    9.9628 H       1  UNL1        0.1453
     28 N          62.1592   89.7526   14.1091 N.pl3   1  UNL1       -0.2585
     29 H          61.3847   89.3691   14.5805 H       1  UNL1        0.2589
     30 C          62.1221   89.9211   12.6190 C.3     1  UNL1        0.2142
     31 C          63.1359   90.8663   12.0455 C.3     1  UNL1        0.0490
     32 C          63.3541   91.2461   10.6109 C.3     1  UNL1        0.0057
     33 C          62.6123   90.7743    9.3953 C.3     1  UNL1        0.0216
     34 C          61.4693   89.8064    9.3143 C.3     1  UNL1        0.0940
     35 N          60.7856   89.0711   10.4288 N.am    1  UNL1       -0.2686
     36 C          61.0762   89.1222   11.8995 C.2     1  UNL1        0.2622
     37 O          60.2056   88.2603   12.7652 O.2     1  UNL1       -0.2712
     38 C          59.6630   88.1650   10.0183 C.3     1  UNL1        0.1794
     39 C          59.7628   87.3762    8.7463 C.2     1  UNL1        0.2459
     40 O          58.6910   87.4953    7.7039 O.2     1  UNL1       -0.2730
     41 N          60.9346   86.4683    8.5170 N.am    1  UNL1       -0.2781
     42 C          62.0774   86.2474    9.4631 C.3     1  UNL1        0.0935
     43 C          63.0184   85.2645    8.8320 C.3     1  UNL1        0.0233
     44 C          62.4572   84.8778    7.4958 C.3     1  UNL1        0.0233
     45 C          61.1694   85.6218    7.3011 C.3     1  UNL1        0.0935
@<TRIPOS>BOND
     1     5     6    1
     2     6     7   ar
     3     7     8   ar
     4     8     9   ar
     5     9    10   ar
     6    10     3    1
     7     3     1    1
     8     1     2    2
     9     2    15    1
    10    15    16    2
    11    15    17    1
    12    17    18   ar
    13    18    19   ar
    14    19    20   ar
    15    20    21   ar
    16    21    23    1
    17    23    24   am
    18    23    25    2
    19    21    22   ar
    20     1    28    1
    21    30    28    1
    22    30    31    1
    23    31    32    1
    24    32    33    1
    25    33    34    1
    26    34    35    1
    27    35    38    1
    28    38    39    1
    29    39    40    2
    30    39    41   am
    31    41    42    1
    32    42    43    1
    33    43    44    1
    34    44    45    1
    35    35    36   am
    36    36    37    2
    37    10    11   ar
    38    11    12   ar
    39    12    13   ar
    40    13    14   ar
    41    14     6   ar
    42    13     8   ar
    43    22    17   ar
    44    36    30    1
    45    45    41    1
    46     3     4    1
    47    24    26    1
    48    24    27    1
    49    28    29    1
@<TRIPOS>MOLECULE
*****
 45 49 0 0 0
SMALL
GASTEIGER

@<TRIPOS>ATOM
      1 C          63.0574   90.2695   13.2957 C.2     1  UNL1        0.3851
      2 N          62.3582   89.8145   14.5423 N.am    1  UNL1        0.0007
      3 N          64.5505   90.4116   13.2826 N.pl3   1  UNL1       -0.2438
      4 H          65.1201   89.6461   13.5252 H       1  UNL1        0.2647
      5 C          66.9953   96.4857    8.9522 C.3     1  UNL1        0.0725
      6 C          66.6446   95.4704    9.9992 C.ar    1  UNL1        0.1233
      7 C          65.9179   94.1790    9.7668 C.ar    1  UNL1        0.0361
      8 C          65.7833   93.4787   11.0864 C.ar    1  UNL1        0.0400
      9 C          65.1578   92.1702   11.4691 C.ar    1  UNL1        0.0365
     10 C          65.1760   91.7202   12.8998 C.ar    1  UNL1        0.1168
     11 C          65.8196   92.5789   13.9480 C.ar    1  UNL1        0.0365
     12 C          66.4450   93.8874   13.5653 C.ar    1  UNL1        0.0404
     13 C          66.4269   94.3373   12.1345 C.ar    1  UNL1        0.1450
     14 O          66.9592   95.5683   11.4626 O.2     1  UNL1       -0.4577
     15 C          63.1522   89.5016   15.7759 C.2     1  UNL1        0.3433
     16 O          63.9046   90.5916   16.4800 O.2     1  UNL1       -0.2483
     17 C          63.1938   88.0988   16.3053 C.ar    1  UNL1        0.0920
     18 C          62.5302   87.7694   17.6096 C.ar    1  UNL1        0.1050
     19 N          62.5717   86.3666   18.1391 N.ar    1  UNL1       -0.2420
     20 C          63.2770   85.2931   17.3643 C.ar    1  UNL1        0.1034
     21 C          63.9407   85.6225   16.0600 C.ar    1  UNL1        0.0725
     22 C          63.8991   87.0254   15.5306 C.ar    1  UNL1        0.0137
     23 C          64.6459   84.5491   15.2852 C.2     1  UNL1        0.2443
     24 N          65.8514   84.8889   14.4598 N.am    1  UNL1       -0.3253
     25 O          64.1457   83.1359   15.3358 O.2     1  UNL1       -0.2703
     26 H          66.1797   85.8165   14.4266 H       1  UNL1        0.1453
     27 H          66.3143   84.1844   13.9512 H       1  UNL1        0.1453
     28 N          62.2633   90.5823   12.0620 N.pl3   1  UNL1       -0.2585
     29 H          62.0939   91.5188   11.8100 H       1  UNL1        0.2589
     30 C          61.7275   89.4682   11.2125 C.3     1  UNL1        0.2142
     31 C          60.5750   89.8258   10.3214 C.3     1  UNL1        0.0490
     32 C          59.8253   88.9474    9.3642 C.3     1  UNL1        0.0057
     33 C          60.0430   87.4944    9.0615 C.3     1  UNL1        0.0216
     34 C          61.0641   86.5611    9.6413 C.3     1  UNL1        0.0940
     35 N          62.1197   86.8502   10.6671 N.am    1  UNL1       -0.2686
     36 C          62.4149   88.1440   11.3663 C.2     1  UNL1        0.2622
     37 O          63.5474   88.1088   12.3493 O.2     1  UNL1       -0.2712
     38 C          62.9960   85.6923   11.0433 C.3     1  UNL1        0.1794
     39 C          62.5282   84.6987   12.0650 C.2     1  UNL1        0.2459
     40 O          61.8555   85.1727   13.3191 O.2     1  UNL1       -0.2730
     41 N          62.7330   83.2311   11.8325 N.am    1  UNL1       -0.2781
     42 C          63.3861   82.6111   10.6329 C.3     1  UNL1        0.0935
     43 C          63.3774   81.1226   10.8178 C.3     1  UNL1        0.0233
     44 C          62.7190   80.8226   12.1318 C.3     1  UNL1        0.0233
     45 C          62.3207   82.1257   12.7588 C.3     1  UNL1        0.0935
@<TRIPOS>BOND
     1     5     6    1
     2     6     7   ar
     3     7     8   ar
     4     8     9   ar
     5     9    10   ar
     6    10     3    1
     7     3     1    1
     8     1     2    2
     9     2    15    1
    10    15    16    2
    11    15    17    1
    12    17    18   ar
    13    18    19   ar
    14    19    20   ar
    15    20    21   ar
    16    21    23    1
    17    23    24   am
    18    23    25    2
    19    21    22   ar
    20     1    28    1
    21    30    28    1
    22    30    31    1
    23    31    32    1
    24    32    33    1
    25    33    34    1
    26    34    35    1
    27    35    38    1
    28    38    39    1
    29    39    40    2
    30    39    41   am
    31    41    42    1
    32    42    43    1
    33    43    44    1
    34    44    45    1
    35    35    36   am
    36    36    37    2
    37    10    11   ar
    38    11    12   ar
    39    12    13   ar
    40    13    14   ar
    41    14     6   ar
    42    13     8   ar
    43    22    17   ar
    44    36    30    1
    45    45    41    1
    46     3     4    1
    47    24    26    1
    48    24    27    1
    49    28    29    1
@<TRIPOS>MOLECULE
*****
 45 49 0 0 0
SMALL
GASTEIGER

@<TRIPOS>ATOM
      1 C          64.4490   90.0817   13.2910 C.2     1  UNL1        0.3851
      2 N          65.6892   90.7274   13.8342 N.am    1  UNL1        0.0007
      3 N          63.3842   90.9226   12.6515 N.pl3   1  UNL1       -0.2438
      4 H          63.3429   91.8888   12.8361 H       1  UNL1        0.2647
      5 C          60.0845   85.9303    7.5710 C.3     1  UNL1        0.0725
      6 C          60.4650   87.0258    8.5224 C.ar    1  UNL1        0.1233
      7 C          61.7768   87.1559    9.2380 C.ar    1  UNL1        0.0361
      8 C          61.7231   88.3940   10.0831 C.ar    1  UNL1        0.0400
      9 C          62.7251   89.0252   11.0037 C.ar    1  UNL1        0.0365
     10 C          62.3821   90.2914   11.7309 C.ar    1  UNL1        0.1168
     11 C          61.0370   90.9265   11.5375 C.ar    1  UNL1        0.0365
     12 C          60.0350   90.2954   10.6169 C.ar    1  UNL1        0.0404
     13 C          60.3780   89.0292    9.8897 C.ar    1  UNL1        0.1450
     14 O          59.6005   88.1835    8.9251 O.2     1  UNL1       -0.4577
     15 C          65.8645   92.2141   13.7379 C.2     1  UNL1        0.3433
     16 O          65.5166   93.0875   14.9067 O.2     1  UNL1       -0.2483
     17 C          66.3877   92.8272   12.4729 C.ar    1  UNL1        0.0920
     18 C          67.4044   92.0943   11.6488 C.ar    1  UNL1        0.1050
     19 N          67.9276   92.7074   10.3839 N.ar    1  UNL1       -0.2420
     20 C          67.4342   94.0536    9.9429 C.ar    1  UNL1        0.1034
     21 C          66.4175   94.7866   10.7670 C.ar    1  UNL1        0.0725
     22 C          65.8943   94.1733   12.0321 C.ar    1  UNL1        0.0137
     23 C          65.9240   96.1327   10.3261 C.2     1  UNL1        0.2443
     24 N          64.8914   96.8560   11.1388 N.am    1  UNL1       -0.3253
     25 O          66.4631   96.7555    9.0725 O.2     1  UNL1       -0.2703
     26 H          64.5376   96.4472   11.9616 H       1  UNL1        0.1453
     27 H          64.5675   97.7395   10.8495 H       1  UNL1        0.1453
     28 N          64.2737   88.5951   13.3872 N.pl3   1  UNL1       -0.2585
     29 H          64.4150   88.0303   12.5933 H       1  UNL1        0.2589
     30 C          63.8832   87.9689   14.6931 C.3     1  UNL1        0.2142
     31 C          63.4368   88.9205   15.7634 C.3     1  UNL1        0.0490
     32 C          62.9877   88.6121   17.1610 C.3     1  UNL1        0.0057
     33 C          62.8740   87.2761   17.8335 C.3     1  UNL1        0.0216
     34 C          63.1814   85.9185   17.2745 C.3     1  UNL1        0.0940
     35 N          63.6784   85.5616   15.9049 N.am    1  UNL1       -0.2686
     36 C          63.9907   86.4742   14.7561 C.2     1  UNL1        0.2622
     37 O          64.4745   85.8031   13.5049 O.2     1  UNL1       -0.2712
     38 C          63.8911   84.0987   15.6506 C.3     1  UNL1        0.1794
     39 C          62.8755   83.3177   14.8705 C.2     1  UNL1        0.2459
     40 O          61.5188   83.0578   15.4549 O.2     1  UNL1       -0.2730
     41 N          63.2168   82.7965   13.5059 N.am    1  UNL1       -0.2781
     42 C          64.5255   82.9764   12.7952 C.3     1  UNL1        0.0935
     43 C          64.4267   82.2951   11.4626 C.3     1  UNL1        0.0233
     44 C          63.0570   81.6941   11.3496 C.3     1  UNL1        0.0233
     45 C          62.3092   82.0040   12.6125 C.3     1  UNL1        0.0935
@<TRIPOS>BOND
     1     5     6    1
     2     6     7   ar
     3     7     8   ar
     4     8     9   ar
     5     9    10   ar
     6    10     3    1
     7     3     1    1
     8     1     2    2
     9     2    15    1
    10    15    16    2
    11    15    17    1
    12    17    18   ar
    13    18    19   ar
    14    19    20   ar
    15    20    21   ar
    16    21    23    1
    17    23    24   am
    18    23    25    2
    19    21    22   ar
    20     1    28    1
    21    30    28    1
    22    30    31    1
    23    31    32    1
    24    32    33    1
    25    33    34    1
    26    34    35    1
    27    35    38    1
    28    38    39    1
    29    39    40    2
    30    39    41   am
    31    41    42    1
    32    42    43    1
    33    43    44    1
    34    44    45    1
    35    35    36   am
    36    36    37    2
    37    10    11   ar
    38    11    12   ar
    39    12    13   ar
    40    13    14   ar
    41    14     6   ar
    42    13     8   ar
    43    22    17   ar
    44    36    30    1
    45    45    41    1
    46     3     4    1
    47    24    26    1
    48    24    27    1
    49    28    29    1
@<TRIPOS>MOLECULE
*****
 45 49 0 0 0
SMALL
GASTEIGER

@<TRIPOS>ATOM
      1 C          63.8311   89.5904   13.5850 C.2     1  UNL1        0.3851
      2 N          64.4502   88.6649   14.5900 N.am    1  UNL1        0.0007
      3 N          62.3387   89.6656   13.4541 N.pl3   1  UNL1       -0.2438
      4 H          61.7927   89.9714   14.2141 H       1  UNL1        0.2647
      5 C          60.3565   85.5255    7.0859 C.3     1  UNL1        0.0725
      6 C          60.5507   86.5119    8.1992 C.ar    1  UNL1        0.1233
      7 C          61.4614   86.3419    9.3789 C.ar    1  UNL1        0.0361
      8 C          61.3418   87.5663   10.2371 C.ar    1  UNL1        0.0400
      9 C          62.0023   87.9571   11.5259 C.ar    1  UNL1        0.0365
     10 C          61.6782   89.2747   12.1653 C.ar    1  UNL1        0.1168
     11 C          60.6936   90.2015   11.5159 C.ar    1  UNL1        0.0365
     12 C          60.0331   89.8107   10.2271 C.ar    1  UNL1        0.0404
     13 C          60.3573   88.4931    9.5877 C.ar    1  UNL1        0.1450
     14 O          59.8683   87.8414    8.3283 O.2     1  UNL1       -0.4577
     15 C          63.5769   87.8144   15.4642 C.2     1  UNL1        0.3433
     16 O          62.7928   88.4420   16.5784 O.2     1  UNL1       -0.2483
     17 C          63.4877   86.3365   15.2242 C.ar    1  UNL1        0.0920
     18 C          63.0826   85.4187   16.3394 C.ar    1  UNL1        0.1050
     19 N          62.9934   83.9407   16.0994 N.ar    1  UNL1       -0.2420
     20 C          63.3092   83.3805   14.7442 C.ar    1  UNL1        0.1034
     21 C          63.7143   84.2983   13.6290 C.ar    1  UNL1        0.0725
     22 C          63.8035   85.7763   13.8691 C.ar    1  UNL1        0.0137
     23 C          64.0302   83.7382   12.2739 C.2     1  UNL1        0.2443
     24 N          65.0016   82.6031   12.1394 N.am    1  UNL1       -0.3253
     25 O          63.3747   84.3130   11.0533 O.2     1  UNL1       -0.2703
     26 H          65.4318   82.2258   12.9405 H       1  UNL1        0.1453
     27 H          65.2089   82.2355   11.2500 H       1  UNL1        0.1453
     28 N          64.7044   90.4409   12.7108 N.pl3   1  UNL1       -0.2585
     29 H          64.7584   90.2604   11.7445 H       1  UNL1        0.2589
     30 C          65.4955   91.5662   13.3089 C.3     1  UNL1        0.2142
     31 C          66.0579   91.3117   14.6760 C.3     1  UNL1        0.0490
     32 C          66.8833   92.2254   15.5328 C.3     1  UNL1        0.0057
     33 C          67.3501   93.6193   15.2339 C.3     1  UNL1        0.0216
     34 C          67.1068   94.4437   14.0046 C.3     1  UNL1        0.0940
     35 N          66.3366   94.0778   12.7705 N.am    1  UNL1       -0.2686
     36 C          65.6195   92.7972   12.4609 C.2     1  UNL1        0.2622
     37 O          64.9361   92.7402   11.1269 O.2     1  UNL1       -0.2712
     38 C          66.2755   95.1320   11.7051 C.3     1  UNL1        0.1794
     39 C          66.9065   94.8835   10.3672 C.2     1  UNL1        0.2459
     40 O          68.1051   93.9884   10.2579 O.2     1  UNL1       -0.2730
     41 N          66.3388   95.5303    9.1386 N.am    1  UNL1       -0.2781
     42 C          65.1505   96.4446    9.0924 C.3     1  UNL1        0.0935
     43 C          64.9371   96.8556    7.6658 C.3     1  UNL1        0.0233
     44 C          65.9934   96.1953    6.8301 C.3     1  UNL1        0.0233
     45 C          66.8597   95.3762    7.7404 C.3     1  UNL1        0.0935
@<TRIPOS>BOND
     1     5     6    1
     2     6     7   ar
     3     7     8   ar
     4     8     9   ar
     5     9    10   ar
     6    10     3    1
     7     3     1    1
     8     1     2    2
     9     2    15    1
    10    15    16    2
    11    15    17    1
    12    17    18   ar
    13    18    19   ar
    14    19    20   ar
    15    20    21   ar
    16    21    23    1
    17    23    24   am
    18    23    25    2
    19    21    22   ar
    20     1    28    1
    21    30    28    1
    22    30    31    1
    23    31    32    1
    24    32    33    1
    25    33    34    1
    26    34    35    1
    27    35    38    1
    28    38    39    1
    29    39    40    2
    30    39    41   am
    31    41    42    1
    32    42    43    1
    33    43    44    1
    34    44    45    1
    35    35    36   am
    36    36    37    2
    37    10    11   ar
    38    11    12   ar
    39    12    13   ar
    40    13    14   ar
    41    14     6   ar
    42    13     8   ar
    43    22    17   ar
    44    36    30    1
    45    45    41    1
    46     3     4    1
    47    24    26    1
    48    24    27    1
    49    28    29    1
@<TRIPOS>MOLECULE
*****
 45 49 0 0 0
SMALL
GASTEIGER

@<TRIPOS>ATOM
      1 C          61.9565   88.4500   11.7810 C.2     1  UNL1        0.3851
      2 N          63.1109   87.5357   12.0662 N.am    1  UNL1        0.0007
      3 N          60.6373   87.8804   11.3505 N.pl3   1  UNL1       -0.2438
      4 H          60.0839   87.3803   11.9930 H       1  UNL1        0.2647
      5 C          58.8879   91.3101    4.5095 C.3     1  UNL1        0.0725
      6 C          59.1221   90.4159    5.6908 C.ar    1  UNL1        0.1233
      7 C          59.7017   90.8319    7.0103 C.ar    1  UNL1        0.0361
      8 C          59.7557   89.6218    7.8950 C.ar    1  UNL1        0.0400
      9 C          60.2316   89.4293    9.3044 C.ar    1  UNL1        0.0365
     10 C          60.1614   88.0730    9.9411 C.ar    1  UNL1        0.1168
     11 C          59.6152   86.9091    9.1683 C.ar    1  UNL1        0.0365
     12 C          59.1392   87.1016    7.7590 C.ar    1  UNL1        0.0404
     13 C          59.2095   88.4579    7.1223 C.ar    1  UNL1        0.1450
     14 O          58.8179   88.9487    5.7600 O.2     1  UNL1       -0.4577
     15 C          62.9462   86.0518   11.9208 C.2     1  UNL1        0.3433
     16 O          62.5225   85.4696   10.6050 O.2     1  UNL1       -0.2483
     17 C          63.2052   85.1503   13.0913 C.ar    1  UNL1        0.0920
     18 C          63.9476   85.6685   14.2873 C.ar    1  UNL1        0.1050
     19 N          64.2066   84.7669   15.4578 N.ar    1  UNL1       -0.2420
     20 C          63.7233   83.3471   15.4323 C.ar    1  UNL1        0.1034
     21 C          62.9809   82.8289   14.2363 C.ar    1  UNL1        0.0725
     22 C          62.7219   83.7305   13.0658 C.ar    1  UNL1        0.0137
     23 C          62.4976   81.4092   14.2108 C.2     1  UNL1        0.2443
     24 N          61.0315   81.1182   14.0853 N.am    1  UNL1       -0.3253
     25 O          63.4804   80.2804   14.3108 O.2     1  UNL1       -0.2703
     26 H          60.3865   81.8591   14.0197 H       1  UNL1        0.1453
     27 H          60.7143   80.1864   14.0685 H       1  UNL1        0.1453
     28 N          62.1212   89.9339   11.9263 N.pl3   1  UNL1       -0.2585
     29 H          61.5043   90.5453   11.4630 H       1  UNL1        0.2589
     30 C          63.2260   90.4860   12.7776 C.3     1  UNL1        0.2142
     31 C          63.1513   90.1518   14.2380 C.3     1  UNL1        0.0490
     32 C          64.0916   90.5484   15.3374 C.3     1  UNL1        0.0057
     33 C          65.3387   91.3771   15.2479 C.3     1  UNL1        0.0216
     34 C          65.9536   92.0139   14.0370 C.3     1  UNL1        0.0940
     35 N          65.4732   91.9792   12.6164 N.am    1  UNL1       -0.2686
     36 C          64.2593   91.2992   12.0559 C.2     1  UNL1        0.2622
     37 O          64.0512   91.4529   10.5784 O.2     1  UNL1       -0.2712
     38 C          66.3185   92.7229   11.6252 C.3     1  UNL1        0.1794
     39 C          66.4169   94.2180   11.6960 C.2     1  UNL1        0.2459
     40 O          66.1721   94.9250   12.9959 O.2     1  UNL1       -0.2730
     41 N          66.7602   95.0060   10.4666 N.am    1  UNL1       -0.2781
     42 C          67.0304   94.4406    9.1038 C.3     1  UNL1        0.0935
     43 C          67.3307   95.5829    8.1793 C.3     1  UNL1        0.0233
     44 C          67.2462   96.8544    8.9707 C.3     1  UNL1        0.0233
     45 C          66.8936   96.4977   10.3843 C.3     1  UNL1        0.0935
@<TRIPOS>BOND
     1     5     6    1
     2     6     7   ar
     3     7     8   ar
     4     8     9   ar
     5     9    10   ar
     6    10     3    1
     7     3     1    1
     8     1     2    2
     9     2    15    1
    10    15    16    2
    11    15    17    1
    12    17    18   ar
    13    18    19   ar
    14    19    20   ar
    15    20    21   ar
    16    21    23    1
    17    23    24   am
    18    23    25    2
    19    21    22   ar
    20     1    28    1
    21    30    28    1
    22    30    31    1
    23    31    32    1
    24    32    33    1
    25    33    34    1
    26    34    35    1
    27    35    38    1
    28    38    39    1
    29    39    40    2
    30    39    41   am
    31    41    42    1
    32    42    43    1
    33    43    44    1
    34    44    45    1
    35    35    36   am
    36    36    37    2
    37    10    11   ar
    38    11    12   ar
    39    12    13   ar
    40    13    14   ar
    41    14     6   ar
    42    13     8   ar
    43    22    17   ar
    44    36    30    1
    45    45    41    1
    46     3     4    1
    47    24    26    1
    48    24    27    1
    49    28    29    1
@<TRIPOS>MOLECULE
*****
 45 49 0 0 0
SMALL
GASTEIGER

@<TRIPOS>ATOM
      1 C          63.5324   87.5255   13.3907 C.2     1  UNL1        0.3851
      2 N          64.6534   87.2964   14.3607 N.am    1  UNL1        0.0007
      3 N          62.9066   86.3624   12.6796 N.pl3   1  UNL1       -0.2438
      4 H          62.9006   85.4729   13.1013 H       1  UNL1        0.2647
      5 C          58.9889   89.6062    6.7002 C.3     1  UNL1        0.0725
      6 C          59.7772   88.7665    7.6611 C.ar    1  UNL1        0.1233
      7 C          60.1338   89.1383    9.0699 C.ar    1  UNL1        0.0361
      8 C          60.9244   88.0092    9.6615 C.ar    1  UNL1        0.0400
      9 C          61.5411   87.8169   11.0152 C.ar    1  UNL1        0.0365
     10 C          62.2898   86.5548   11.3258 C.ar    1  UNL1        0.1168
     11 C          62.4219   85.4850   10.2826 C.ar    1  UNL1        0.0365
     12 C          61.8052   85.6774    8.9289 C.ar    1  UNL1        0.0404
     13 C          61.0565   86.9394    8.6183 C.ar    1  UNL1        0.1450
     14 O          60.3475   87.4075    7.3821 O.2     1  UNL1       -0.4577
     15 C          65.1486   85.9043   14.6195 C.2     1  UNL1        0.3433
     16 O          66.5729   85.6798   15.0331 O.2     1  UNL1       -0.2483
     17 C          64.2196   84.7369   14.4648 C.ar    1  UNL1        0.0920
     18 C          63.1643   84.4761   15.4985 C.ar    1  UNL1        0.1050
     19 N          62.2353   83.3087   15.3438 N.ar    1  UNL1       -0.2420
     20 C          62.3615   82.4020   14.1554 C.ar    1  UNL1        0.1034
     21 C          63.4168   82.6629   13.1218 C.ar    1  UNL1        0.0725
     22 C          64.3458   83.8303   13.2766 C.ar    1  UNL1        0.0137
     23 C          63.5430   81.7563   11.9335 C.2     1  UNL1        0.2443
     24 N          62.8444   80.4289   11.9253 N.am    1  UNL1       -0.3253
     25 O          64.3678   82.1770   10.7534 O.2     1  UNL1       -0.2703
     26 H          62.3030   80.1528   12.6998 H       1  UNL1        0.1453
     27 H          62.9272   79.8339   11.1454 H       1  UNL1        0.1453
     28 N          63.0372   88.9175   13.1318 N.pl3   1  UNL1       -0.2585
     29 H          62.1182   89.0611   12.8092 H       1  UNL1        0.2589
     30 C          63.9423   90.0909   13.3645 C.3     1  UNL1        0.2142
     31 C          64.4818   90.2306   14.7571 C.3     1  UNL1        0.0490
     32 C          65.4004   91.2833   15.3030 C.3     1  UNL1        0.0057
     33 C          66.0064   92.4563   14.5909 C.3     1  UNL1        0.0216
     34 C          65.8435   92.8663   13.1573 C.3     1  UNL1        0.0940
     35 N          65.0343   92.2045   12.0815 N.am    1  UNL1       -0.2686
     36 C          64.1882   90.9693   12.1738 C.2     1  UNL1        0.2622
     37 O          63.4965   90.5583   10.9078 O.2     1  UNL1       -0.2712
     38 C          65.0768   92.8653   10.7356 C.3     1  UNL1        0.1794
     39 C          66.3961   93.2124   10.1120 C.2     1  UNL1        0.2459
     40 O          67.5031   92.2006   10.0865 O.2     1  UNL1       -0.2730
     41 N          66.6083   94.5715    9.5137 N.am    1  UNL1       -0.2781
     42 C          65.5998   95.6808    9.4652 C.3     1  UNL1        0.0935
     43 C          66.2346   96.8547    8.7805 C.3     1  UNL1        0.0233
     44 C          67.6354   96.4710    8.4057 C.3     1  UNL1        0.0233
     45 C          67.8664   95.0599    8.8589 C.3     1  UNL1        0.0935
@<TRIPOS>BOND
     1     5     6    1
     2     6     7   ar
     3     7     8   ar
     4     8     9   ar
     5     9    10   ar
     6    10     3    1
     7     3     1    1
     8     1     2    2
     9     2    15    1
    10    15    16    2
    11    15    17    1
    12    17    18   ar
    13    18    19   ar
    14    19    20   ar
    15    20    21   ar
    16    21    23    1
    17    23    24   am
    18    23    25    2
    19    21    22   ar
    20     1    28    1
    21    30    28    1
    22    30    31    1
    23    31    32    1
    24    32    33    1
    25    33    34    1
    26    34    35    1
    27    35    38    1
    28    38    39    1
    29    39    40    2
    30    39    41   am
    31    41    42    1
    32    42    43    1
    33    43    44    1
    34    44    45    1
    35    35    36   am
    36    36    37    2
    37    10    11   ar
    38    11    12   ar
    39    12    13   ar
    40    13    14   ar
    41    14     6   ar
    42    13     8   ar
    43    22    17   ar
    44    36    30    1
    45    45    41    1
    46     3     4    1
    47    24    26    1
    48    24    27    1
    49    28    29    1
@<TRIPOS>MOLECULE
*****
 45 49 0 0 0
SMALL
GASTEIGER

@<TRIPOS>ATOM
      1 C          62.7103   89.9272   13.2050 C.2     1  UNL1        0.3851
      2 N          62.0389   89.7790   14.5382 N.am    1  UNL1        0.0007
      3 N          64.2007   89.7964   13.0972 N.pl3   1  UNL1       -0.2438
      4 H          64.6020   88.9344   12.8422 H       1  UNL1        0.2647
      5 C          69.5291   94.4413   16.5114 C.3     1  UNL1        0.0725
      6 C          68.4804   93.7718   15.6735 C.ar    1  UNL1        0.1233
      7 C          67.9114   92.4027   15.9010 C.ar    1  UNL1        0.0361
      8 C          66.8959   92.1387   14.8291 C.ar    1  UNL1        0.0400
      9 C          66.0171   90.9559   14.5485 C.ar    1  UNL1        0.0365
     10 C          65.0795   90.9792   13.3779 C.ar    1  UNL1        0.1168
     11 C          65.0208   92.1852   12.4879 C.ar    1  UNL1        0.0365
     12 C          65.8996   93.3679   12.7685 C.ar    1  UNL1        0.0404
     13 C          66.8372   93.3447   13.9391 C.ar    1  UNL1        0.1450
     14 O          67.8164   94.3540   14.4610 O.2     1  UNL1       -0.4577
     15 C          62.8579   89.5001   15.7635 C.2     1  UNL1        0.3433
     16 O          63.5078   90.6308   16.5046 O.2     1  UNL1       -0.2483
     17 C          63.0270   88.0906   16.2478 C.ar    1  UNL1        0.0920
     18 C          62.3532   87.6459   17.5121 C.ar    1  UNL1        0.1050
     19 N          62.5223   86.2364   17.9963 N.ar    1  UNL1       -0.2420
     20 C          63.3652   85.2714   17.2163 C.ar    1  UNL1        0.1034
     21 C          64.0390   85.7160   15.9521 C.ar    1  UNL1        0.0725
     22 C          63.8699   87.1256   15.4679 C.ar    1  UNL1        0.0137
     23 C          64.8819   84.7511   15.1722 C.2     1  UNL1        0.2443
     24 N          66.2158   85.1820   14.6383 N.am    1  UNL1       -0.3253
     25 O          64.3910   83.3552   14.9261 O.2     1  UNL1       -0.2703
     26 H          66.5380   86.0982   14.7998 H       1  UNL1        0.1453
     27 H          66.7690   84.5487   14.1263 H       1  UNL1        0.1453
     28 N          61.8912   90.2061   11.9797 N.pl3   1  UNL1       -0.2585
     29 H          61.6296   91.1299   11.7622 H       1  UNL1        0.2589
     30 C          61.4709   89.0774   11.0856 C.3     1  UNL1        0.2142
     31 C          60.3675   89.3894   10.1185 C.3     1  UNL1        0.0490
     32 C          59.7302   88.4870    9.1039 C.3     1  UNL1        0.0057
     33 C          60.0390   87.0496    8.8057 C.3     1  UNL1        0.0216
     34 C          61.0612   86.1598    9.4485 C.3     1  UNL1        0.0940
     35 N          62.0272   86.4875   10.5483 N.am    1  UNL1       -0.2686
     36 C          62.2095   87.7859   11.2769 C.2     1  UNL1        0.2622
     37 O          63.2708   87.7939   12.3369 O.2     1  UNL1       -0.2712
     38 C          62.9302   85.3688   10.9761 C.3     1  UNL1        0.1794
     39 C          62.5080   84.4442   12.0792 C.2     1  UNL1        0.2459
     40 O          61.9177   85.0017   13.3404 O.2     1  UNL1       -0.2730
     41 N          62.6760   82.9621   11.9210 N.am    1  UNL1       -0.2781
     42 C          63.2477   82.2623   10.7237 C.3     1  UNL1        0.0935
     43 C          63.2269   80.7873   10.9951 C.3     1  UNL1        0.0233
     44 C          62.6423   80.5753   12.3602 C.3     1  UNL1        0.0233
     45 C          62.3019   81.9194   12.9324 C.3     1  UNL1        0.0935
@<TRIPOS>BOND
     1     5     6    1
     2     6     7   ar
     3     7     8   ar
     4     8     9   ar
     5     9    10   ar
     6    10     3    1
     7     3     1    1
     8     1     2    2
     9     2    15    1
    10    15    16    2
    11    15    17    1
    12    17    18   ar
    13    18    19   ar
    14    19    20   ar
    15    20    21   ar
    16    21    23    1
    17    23    24   am
    18    23    25    2
    19    21    22   ar
    20     1    28    1
    21    30    28    1
    22    30    31    1
    23    31    32    1
    24    32    33    1
    25    33    34    1
    26    34    35    1
    27    35    38    1
    28    38    39    1
    29    39    40    2
    30    39    41   am
    31    41    42    1
    32    42    43    1
    33    43    44    1
    34    44    45    1
    35    35    36   am
    36    36    37    2
    37    10    11   ar
    38    11    12   ar
    39    12    13   ar
    40    13    14   ar
    41    14     6   ar
    42    13     8   ar
    43    22    17   ar
    44    36    30    1
    45    45    41    1
    46     3     4    1
    47    24    26    1
    48    24    27    1
    49    28    29    1
@<TRIPOS>MOLECULE
*****
 45 49 0 0 0
SMALL
GASTEIGER

@<TRIPOS>ATOM
      1 C          63.8242   89.5687   13.6326 C.2     1  UNL1        0.3851
      2 N          64.4718   88.6543   14.6298 N.am    1  UNL1        0.0007
      3 N          62.3287   89.6509   13.5510 N.pl3   1  UNL1       -0.2438
      4 H          61.8104   89.9717   14.3242 H       1  UNL1        0.2647
      5 C          60.3563   85.5966    7.1248 C.3     1  UNL1        0.0725
      6 C          60.5210   86.5485    8.2724 C.ar    1  UNL1        0.1233
      7 C          61.5292   86.4321    9.3768 C.ar    1  UNL1        0.0361
      8 C          61.3376   87.5956   10.3040 C.ar    1  UNL1        0.0400
      9 C          62.0435   88.0021   11.5635 C.ar    1  UNL1        0.0365
     10 C          61.6228   89.2443   12.2915 C.ar    1  UNL1        0.1168
     11 C          60.4961   90.0798   11.7600 C.ar    1  UNL1        0.0365
     12 C          59.7902   89.6732   10.5005 C.ar    1  UNL1        0.0404
     13 C          60.2110   88.4311    9.7725 C.ar    1  UNL1        0.1450
     14 O          59.7062   87.7840    8.5169 O.2     1  UNL1       -0.4577
     15 C          63.6239   87.8220   15.5455 C.2     1  UNL1        0.3433
     16 O          62.9326   88.4601   16.7139 O.2     1  UNL1       -0.2483
     17 C          63.4672   86.3518   15.2928 C.ar    1  UNL1        0.0920
     18 C          62.9795   85.4504   16.3880 C.ar    1  UNL1        0.1050
     19 N          62.8228   83.9802   16.1354 N.ar    1  UNL1       -0.2420
     20 C          63.1539   83.4113   14.7874 C.ar    1  UNL1        0.1034
     21 C          63.6417   84.3128   13.6922 C.ar    1  UNL1        0.0725
     22 C          63.7983   85.7831   13.9449 C.ar    1  UNL1        0.0137
     23 C          63.9728   83.7440   12.3443 C.2     1  UNL1        0.2443
     24 N          64.9605   82.6214   12.2261 N.am    1  UNL1       -0.3253
     25 O          63.3162   84.2979   11.1147 O.2     1  UNL1       -0.2703
     26 H          65.3915   82.2579   13.0332 H       1  UNL1        0.1453
     27 H          65.1779   82.2481   11.3414 H       1  UNL1        0.1453
     28 N          64.6721   90.4009   12.7169 N.pl3   1  UNL1       -0.2585
     29 H          64.6995   90.2002   11.7534 H       1  UNL1        0.2589
     30 C          65.4783   91.5390   13.2691 C.3     1  UNL1        0.2142
     31 C          66.1935   91.2643   14.5587 C.3     1  UNL1        0.0490
     32 C          67.0698   92.1840   15.3564 C.3     1  UNL1        0.0057
     33 C          67.4471   93.6056   15.0616 C.3     1  UNL1        0.0216
     34 C          67.0415   94.4585   13.8962 C.3     1  UNL1        0.0940
     35 N          66.1583   94.1004   12.7378 N.am    1  UNL1       -0.2686
     36 C          65.4626   92.8011   12.4588 C.2     1  UNL1        0.2622
     37 O          64.6428   92.7584   11.2033 O.2     1  UNL1       -0.2712
     38 C          65.9422   95.1851   11.7246 C.3     1  UNL1        0.1794
     39 C          66.8510   95.2931   10.5362 C.2     1  UNL1        0.2459
     40 O          67.1185   96.6322    9.9157 O.2     1  UNL1       -0.2730
     41 N          67.4924   94.0617    9.9683 N.am    1  UNL1       -0.2781
     42 C          67.3200   92.6620   10.4793 C.3     1  UNL1        0.0935
     43 C          68.1398   91.7493    9.6165 C.3     1  UNL1        0.0233
     44 C          68.8190   92.5847    8.5721 C.3     1  UNL1        0.0233
     45 C          68.4188   94.0139    8.7895 C.3     1  UNL1        0.0935
@<TRIPOS>BOND
     1     5     6    1
     2     6     7   ar
     3     7     8   ar
     4     8     9   ar
     5     9    10   ar
     6    10     3    1
     7     3     1    1
     8     1     2    2
     9     2    15    1
    10    15    16    2
    11    15    17    1
    12    17    18   ar
    13    18    19   ar
    14    19    20   ar
    15    20    21   ar
    16    21    23    1
    17    23    24   am
    18    23    25    2
    19    21    22   ar
    20     1    28    1
    21    30    28    1
    22    30    31    1
    23    31    32    1
    24    32    33    1
    25    33    34    1
    26    34    35    1
    27    35    38    1
    28    38    39    1
    29    39    40    2
    30    39    41   am
    31    41    42    1
    32    42    43    1
    33    43    44    1
    34    44    45    1
    35    35    36   am
    36    36    37    2
    37    10    11   ar
    38    11    12   ar
    39    12    13   ar
    40    13    14   ar
    41    14     6   ar
    42    13     8   ar
    43    22    17   ar
    44    36    30    1
    45    45    41    1
    46     3     4    1
    47    24    26    1
    48    24    27    1
    49    28    29    1
@<TRIPOS>MOLECULE
*****
 45 49 0 0 0
SMALL
GASTEIGER

@<TRIPOS>ATOM
      1 C          63.0212   88.0968   12.5503 C.2     1  UNL1        0.3851
      2 N          63.9026   87.2433   13.4131 N.am    1  UNL1        0.0007
      3 N          61.6110   87.6716   12.2663 N.pl3   1  UNL1       -0.2438
      4 H          60.9323   87.7106   12.9783 H       1  UNL1        0.2647
      5 C          62.0114   84.1045    5.2850 C.3     1  UNL1        0.0725
      6 C          61.6730   84.8675    6.5313 C.ar    1  UNL1        0.1233
      7 C          62.5566   85.0309    7.7324 C.ar    1  UNL1        0.0361
      8 C          61.8212   85.8654    8.7388 C.ar    1  UNL1        0.0400
      9 C          62.1972   86.3500   10.1076 C.ar    1  UNL1        0.0365
     10 C          61.2351   87.1870   10.8974 C.ar    1  UNL1        0.1168
     11 C          59.8970   87.5394   10.3183 C.ar    1  UNL1        0.0365
     12 C          59.5210   87.0548    8.9495 C.ar    1  UNL1        0.0404
     13 C          60.4832   86.2178    8.1597 C.ar    1  UNL1        0.1450
     14 O          60.3915   85.6010    6.7954 O.2     1  UNL1       -0.4577
     15 C          63.3739   85.9643   13.9919 C.2     1  UNL1        0.3433
     16 O          62.8741   85.9312   15.4058 O.2     1  UNL1       -0.2483
     17 C          63.3451   84.7187   13.1568 C.ar    1  UNL1        0.0920
     18 C          64.0005   84.7048   11.8077 C.ar    1  UNL1        0.1050
     19 N          63.9716   83.4591   10.9726 N.ar    1  UNL1       -0.2420
     20 C          63.2873   82.2272   11.4866 C.ar    1  UNL1        0.1034
     21 C          62.6318   82.2411   12.8358 C.ar    1  UNL1        0.0725
     22 C          62.6607   83.4869   13.6709 C.ar    1  UNL1        0.0137
     23 C          61.9475   81.0093   13.3499 C.2     1  UNL1        0.2443
     24 N          62.4401   79.6524   12.9424 N.am    1  UNL1       -0.3253
     25 O          60.7706   81.1344   14.2714 O.2     1  UNL1       -0.2703
     26 H          63.2125   79.5703   12.3375 H       1  UNL1        0.1453
     27 H          61.9909   78.8439   13.2798 H       1  UNL1        0.1453
     28 N          63.5499   89.3758   11.9715 N.pl3   1  UNL1       -0.2585
     29 H          63.4070   89.5813   11.0194 H       1  UNL1        0.2589
     30 C          64.2962   90.3415   12.8435 C.3     1  UNL1        0.2142
     31 C          64.5388   89.8916   14.2537 C.3     1  UNL1        0.0490
     32 C          65.2464   90.6185   15.3587 C.3     1  UNL1        0.0057
     33 C          65.8861   91.9749   15.3263 C.3     1  UNL1        0.0216
     34 C          65.9763   92.9394   14.1810 C.3     1  UNL1        0.0940
     35 N          65.4489   92.7856   12.7851 N.am    1  UNL1       -0.2686
     36 C          64.7012   91.6294   12.1899 C.2     1  UNL1        0.2622
     37 O          64.3064   91.7813   10.7508 O.2     1  UNL1       -0.2712
     38 C          65.7029   93.9407   11.8626 C.3     1  UNL1        0.1794
     39 C          66.7172   93.8147   10.7647 C.2     1  UNL1        0.2459
     40 O          67.6504   92.6408   10.7369 O.2     1  UNL1       -0.2730
     41 N          66.7983   94.8628    9.6947 N.am    1  UNL1       -0.2781
     42 C          65.9363   96.0861    9.5915 C.3     1  UNL1        0.0935
     43 C          66.3609   96.8509    8.3730 C.3     1  UNL1        0.0233
     44 C          67.4853   96.1004    7.7231 C.3     1  UNL1        0.0233
     45 C          67.7556   94.8717    8.5400 C.3     1  UNL1        0.0935
@<TRIPOS>BOND
     1     5     6    1
     2     6     7   ar
     3     7     8   ar
     4     8     9   ar
     5     9    10   ar
     6    10     3    1
     7     3     1    1
     8     1     2    2
     9     2    15    1
    10    15    16    2
    11    15    17    1
    12    17    18   ar
    13    18    19   ar
    14    19    20   ar
    15    20    21   ar
    16    21    23    1
    17    23    24   am
    18    23    25    2
    19    21    22   ar
    20     1    28    1
    21    30    28    1
    22    30    31    1
    23    31    32    1
    24    32    33    1
    25    33    34    1
    26    34    35    1
    27    35    38    1
    28    38    39    1
    29    39    40    2
    30    39    41   am
    31    41    42    1
    32    42    43    1
    33    43    44    1
    34    44    45    1
    35    35    36   am
    36    36    37    2
    37    10    11   ar
    38    11    12   ar
    39    12    13   ar
    40    13    14   ar
    41    14     6   ar
    42    13     8   ar
    43    22    17   ar
    44    36    30    1
    45    45    41    1
    46     3     4    1
    47    24    26    1
    48    24    27    1
    49    28    29    1
