@<TRIPOS>MOLECULE
*****
 26 30 0 0 0
SMALL
GASTEIGER

@<TRIPOS>ATOM
      1 C          62.7835   88.7859   11.6092 C.ar    1  UNL1        0.1510
      2 N          63.0858   87.5100   12.3378 N.ar    1  UNL1       -0.2278
      3 C          62.3506   86.2516   11.9832 C.ar    1  UNL1        0.1001
      4 C          61.3130   86.2690   10.9000 C.ar    1  UNL1        0.0393
      5 C          61.0108   87.5449   10.1715 C.ar    1  UNL1        0.0833
      6 C          61.7460   88.8033   10.5261 C.ar    1  UNL1        0.1302
      7 N          61.2375   89.9024    9.6409 N.ar    1  UNL1       -0.2211
      8 C          60.1880   89.3231    8.7392 C.ar    1  UNL1        0.1787
      9 N          60.0479   87.8661    9.0671 N.ar    1  UNL1       -0.3069
     10 C          59.1096   86.9001    8.4066 C.3     1  UNL1        0.1320
     11 C          62.6528   84.9757   12.7117 C.2     1  UNL1        0.1075
     12 N          62.4091   84.8795   14.1886 N.2     1  UNL1       -0.1501
     13 N          62.7113   83.6035   14.9171 N.2     1  UNL1       -0.1454
     14 C          63.2573   82.4239   14.1686 C.2     1  UNL1        0.1374
     15 C          63.5011   82.5201   12.6917 C.2     1  UNL1        0.0893
     16 N          64.0282   81.5309   11.6949 N.2     1  UNL1       -0.2461
     17 C          64.0517   82.1954   10.3503 C.2     1  UNL1        0.0947
     18 C          63.5391   83.5954   10.5161 C.2     1  UNL1        0.0062
     19 C          63.1989   83.7960   11.9633 C.3     1  UNL1        0.1087
     20 C          63.7541   89.2161   14.4151 C.3     1  UNL1        0.0241
     21 C          64.0041   90.2594   13.3668 C.3     1  UNL1        0.1039
     22 C          64.7394   91.5179   13.7214 C.3     1  UNL1        0.1618
     23 O          64.9893   92.5612   12.6730 O.3     1  UNL1       -0.3502
     24 C          64.5040   92.3461   11.2701 C.3     1  UNL1        0.1636
     25 C          63.7688   91.0877   10.9155 C.3     1  UNL1        0.1242
     26 N          63.5188   90.0444   11.9639 N.pl3   1  UNL1       -0.2886
@<TRIPOS>BOND
     1    21    20    1
     2    21    22    1
     3    22    23    1
     4    23    24    1
     5    24    25    1
     6    25    26    1
     7    26     1    1
     8     1     2   ar
     9     2     3   ar
    10     3    11    1
    11    11    12    2
    12    12    13    1
    13    13    14    2
    14    14    15    1
    15    15    16    2
    16    16    17    1
    17    17    18    2
    18    18    19    1
    19     3     4   ar
    20     4     5   ar
    21     5     6   ar
    22     6     7   ar
    23     7     8   ar
    24     8     9   ar
    25     9    10    1
    26    26    21    1
    27     6     1   ar
    28    19    11    1
    29     9     5   ar
    30    19    15    1
@<TRIPOS>MOLECULE
*****
 26 30 0 0 0
SMALL
GASTEIGER

@<TRIPOS>ATOM
      1 C          62.7717   88.2761   11.7536 C.ar    1  UNL1        0.1510
      2 N          63.1685   86.8740   12.1098 N.ar    1  UNL1       -0.2278
      3 C          62.4918   85.7115   11.4462 C.ar    1  UNL1        0.1001
      4 C          61.4183   85.9509   10.4263 C.ar    1  UNL1        0.0393
      5 C          61.0214   87.3529   10.0701 C.ar    1  UNL1        0.0833
      6 C          61.6982   88.5155   10.7337 C.ar    1  UNL1        0.1302
      7 N          61.0999   89.7761   10.1832 N.ar    1  UNL1       -0.2211
      8 C          60.0535   89.3926    9.1793 C.ar    1  UNL1        0.1787
      9 N          60.0050   87.8950    9.1094 N.ar    1  UNL1       -0.3069
     10 C          59.0990   87.0822    8.2327 C.3     1  UNL1        0.1320
     11 C          62.8886   84.3094   11.8024 C.2     1  UNL1        0.1075
     12 N          63.3211   83.3564   10.7280 N.2     1  UNL1       -0.1501
     13 N          63.7179   81.9544   11.0842 N.2     1  UNL1       -0.1454
     14 C          63.6821   81.5054   12.5150 C.2     1  UNL1        0.1374
     15 C          63.2496   82.4585   13.5895 C.2     1  UNL1        0.0893
     16 N          63.1151   82.3021   15.0752 N.2     1  UNL1       -0.2461
     17 C          62.6352   83.6074   15.6373 C.2     1  UNL1        0.0947
     18 C          62.4731   84.5706   14.4988 C.2     1  UNL1        0.0062
     19 C          62.8528   83.8605   13.2332 C.3     1  UNL1        0.1087
     20 C          64.0298   87.9366   14.4558 C.3     1  UNL1        0.0241
     21 C          64.0775   89.2689   13.7684 C.3     1  UNL1        0.1039
     22 C          64.7543   90.4315   14.4320 C.3     1  UNL1        0.1618
     23 O          64.8020   91.7638   13.7445 O.3     1  UNL1       -0.3502
     24 C          64.1729   91.9336   12.3935 C.3     1  UNL1        0.1636
     25 C          63.4962   90.7710   11.7298 C.3     1  UNL1        0.1242
     26 N          63.4485   89.4387   12.4173 N.pl3   1  UNL1       -0.2886
@<TRIPOS>BOND
     1    21    20    1
     2    21    22    1
     3    22    23    1
     4    23    24    1
     5    24    25    1
     6    25    26    1
     7    26     1    1
     8     1     2   ar
     9     2     3   ar
    10     3    11    1
    11    11    12    2
    12    12    13    1
    13    13    14    2
    14    14    15    1
    15    15    16    2
    16    16    17    1
    17    17    18    2
    18    18    19    1
    19     3     4   ar
    20     4     5   ar
    21     5     6   ar
    22     6     7   ar
    23     7     8   ar
    24     8     9   ar
    25     9    10    1
    26    26    21    1
    27     6     1   ar
    28    19    11    1
    29     9     5   ar
    30    19    15    1
@<TRIPOS>MOLECULE
*****
 26 30 0 0 0
SMALL
GASTEIGER

@<TRIPOS>ATOM
      1 C          63.5209   90.8937   12.0080 C.ar    1  UNL1        0.1510
      2 N          64.4217   91.5482   11.0028 N.ar    1  UNL1       -0.2278
      3 C          65.6213   92.3222   11.4626 C.ar    1  UNL1        0.1001
      4 C          65.9204   92.4418   12.9276 C.ar    1  UNL1        0.0393
      5 C          65.0197   91.7874   13.9328 C.ar    1  UNL1        0.0833
      6 C          63.8199   91.0133   13.4730 C.ar    1  UNL1        0.1302
      7 N          63.1188   90.4804   14.6873 N.ar    1  UNL1       -0.2211
      8 C          63.8852   90.9251   15.8975 C.ar    1  UNL1        0.1787
      9 N          65.0600   91.7329   15.4313 N.ar    1  UNL1       -0.3069
     10 C          66.0937   92.3736   16.3094 C.3     1  UNL1        0.1320
     11 C          66.5221   92.9767   10.4575 C.2     1  UNL1        0.1075
     12 N          67.4588   92.1428    9.6346 N.2     1  UNL1       -0.1501
     13 N          68.3595   92.7973    8.6294 N.2     1  UNL1       -0.1454
     14 C          68.3236   94.2858    8.4472 C.2     1  UNL1        0.1374
     15 C          67.3869   95.1197    9.2702 C.2     1  UNL1        0.0893
     16 N          67.1312   96.5971    9.3114 N.2     1  UNL1       -0.2461
     17 C          66.0724   96.8558   10.3420 C.2     1  UNL1        0.0947
     18 C          65.6737   95.5381   10.9377 C.2     1  UNL1        0.0062
     19 C          66.4862   94.4652   10.2753 C.3     1  UNL1        0.1087
     20 C          63.4087   87.9226   12.4085 C.3     1  UNL1        0.0241
     21 C          62.2651   88.6342   11.7483 C.3     1  UNL1        0.1039
     22 C          61.0653   87.8602   11.2884 C.3     1  UNL1        0.1618
     23 O          59.9217   88.5717   10.6283 O.3     1  UNL1       -0.3502
     24 C          59.9777   90.0572   10.4280 C.3     1  UNL1        0.1636
     25 C          61.1775   90.8312   10.8880 C.3     1  UNL1        0.1242
     26 N          62.3211   90.1196   11.5481 N.pl3   1  UNL1       -0.2886
@<TRIPOS>BOND
     1    21    20    1
     2    21    22    1
     3    22    23    1
     4    23    24    1
     5    24    25    1
     6    25    26    1
     7    26     1    1
     8     1     2   ar
     9     2     3   ar
    10     3    11    1
    11    11    12    2
    12    12    13    1
    13    13    14    2
    14    14    15    1
    15    15    16    2
    16    16    17    1
    17    17    18    2
    18    18    19    1
    19     3     4   ar
    20     4     5   ar
    21     5     6   ar
    22     6     7   ar
    23     7     8   ar
    24     8     9   ar
    25     9    10    1
    26    26    21    1
    27     6     1   ar
    28    19    11    1
    29     9     5   ar
    30    19    15    1
@<TRIPOS>MOLECULE
*****
 26 30 0 0 0
SMALL
GASTEIGER

@<TRIPOS>ATOM
      1 C          63.0835   86.8524   12.5077 C.ar    1  UNL1        0.1510
      2 N          63.8269   87.9920   13.1393 N.ar    1  UNL1       -0.2278
      3 C          63.5433   89.4014   12.7113 C.ar    1  UNL1        0.1001
      4 C          62.5165   89.6712   11.6517 C.ar    1  UNL1        0.0393
      5 C          61.7731   88.5317   11.0201 C.ar    1  UNL1        0.0833
      6 C          62.0567   87.1223   11.4481 C.ar    1  UNL1        0.1302
      7 N          61.1723   86.2092   10.6518 N.ar    1  UNL1       -0.2211
      8 C          60.3422   87.0543    9.7317 C.ar    1  UNL1        0.1787
      9 N          60.7135   88.4897    9.9593 N.ar    1  UNL1       -0.3069
     10 C          60.1280   89.6749    9.2505 C.3     1  UNL1        0.1320
     11 C          64.2867   90.5410   13.3428 C.2     1  UNL1        0.1075
     12 N          64.4866   90.5742   14.8290 N.2     1  UNL1       -0.1501
     13 N          65.2299   91.7138   15.4605 N.2     1  UNL1       -0.1454
     14 C          65.7733   92.8202   14.6058 C.2     1  UNL1        0.1374
     15 C          65.5733   92.7870   13.1195 C.2     1  UNL1        0.0893
     16 N          65.9915   93.7284   12.0292 N.2     1  UNL1       -0.2461
     17 C          65.5068   93.1708   10.7239 C.2     1  UNL1        0.0947
     18 C          64.7888   91.8845   11.0074 C.2     1  UNL1        0.0062
     19 C          64.8300   91.6474   12.4881 C.3     1  UNL1        0.1087
     20 C          64.0564   86.2969   15.2907 C.3     1  UNL1        0.0241
     21 C          63.8536   85.1653   14.3272 C.3     1  UNL1        0.1039
     22 C          64.1371   83.7559   14.7552 C.3     1  UNL1        0.1618
     23 O          63.9343   82.6243   13.7917 O.3     1  UNL1       -0.3502
     24 C          63.4479   82.9020   12.4002 C.3     1  UNL1        0.1636
     25 C          63.1643   84.3114   11.9723 C.3     1  UNL1        0.1242
     26 N          63.3671   85.4430   12.9358 N.pl3   1  UNL1       -0.2886
@<TRIPOS>BOND
     1    21    20    1
     2    21    22    1
     3    22    23    1
     4    23    24    1
     5    24    25    1
     6    25    26    1
     7    26     1    1
     8     1     2   ar
     9     2     3   ar
    10     3    11    1
    11    11    12    2
    12    12    13    1
    13    13    14    2
    14    14    15    1
    15    15    16    2
    16    16    17    1
    17    17    18    2
    18    18    19    1
    19     3     4   ar
    20     4     5   ar
    21     5     6   ar
    22     6     7   ar
    23     7     8   ar
    24     8     9   ar
    25     9    10    1
    26    26    21    1
    27     6     1   ar
    28    19    11    1
    29     9     5   ar
    30    19    15    1
@<TRIPOS>MOLECULE
*****
 26 30 0 0 0
SMALL
GASTEIGER

@<TRIPOS>ATOM
      1 C          63.5648   88.2954   13.2305 C.ar    1  UNL1        0.1510
      2 N          62.6576   88.2766   12.0360 N.ar    1  UNL1       -0.2278
      3 C          62.2162   86.9684   11.4499 C.ar    1  UNL1        0.1001
      4 C          62.6820   85.6788   12.0582 C.ar    1  UNL1        0.0393
      5 C          63.5892   85.6975   13.2526 C.ar    1  UNL1        0.0833
      6 C          64.0306   87.0058   13.8387 C.ar    1  UNL1        0.1302
      7 N          64.9209   86.7123   15.0097 N.ar    1  UNL1       -0.2211
      8 C          65.0298   85.2226   15.1473 C.ar    1  UNL1        0.1787
      9 N          64.2067   84.5954   14.0613 N.ar    1  UNL1       -0.3069
     10 C          64.0319   83.1244   13.8256 C.3     1  UNL1        0.1320
     11 C          61.3090   86.9496   10.2555 C.2     1  UNL1        0.1075
     12 N          60.0236   87.7222   10.2778 N.2     1  UNL1       -0.1501
     13 N          59.1163   87.7034    9.0833 N.2     1  UNL1       -0.1454
     14 C          59.4946   86.9119    7.8666 C.2     1  UNL1        0.1374
     15 C          60.7801   86.1393    7.8444 C.2     1  UNL1        0.0893
     16 N          61.4133   85.2746    6.7949 N.2     1  UNL1       -0.2461
     17 C          62.7119   84.7589    7.3407 C.2     1  UNL1        0.0947
     18 C          62.8812   85.3050    8.7276 C.2     1  UNL1        0.0062
     19 C          61.6873   86.1581    9.0388 C.3     1  UNL1        0.1087
     20 C          62.9138   88.9569   16.0833 C.3     1  UNL1        0.0241
     21 C          63.6807   89.9345   15.2429 C.3     1  UNL1        0.1039
     22 C          64.1221   91.2428   15.8289 C.3     1  UNL1        0.1618
     23 O          64.8890   92.2203   14.9885 O.3     1  UNL1       -0.3502
     24 C          65.2145   91.8896   13.5621 C.3     1  UNL1        0.1636
     25 C          64.7731   90.5812   12.9762 C.3     1  UNL1        0.1242
     26 N          64.0062   89.6037   13.8165 N.pl3   1  UNL1       -0.2886
@<TRIPOS>BOND
     1    21    20    1
     2    21    22    1
     3    22    23    1
     4    23    24    1
     5    24    25    1
     6    25    26    1
     7    26     1    1
     8     1     2   ar
     9     2     3   ar
    10     3    11    1
    11    11    12    2
    12    12    13    1
    13    13    14    2
    14    14    15    1
    15    15    16    2
    16    16    17    1
    17    17    18    2
    18    18    19    1
    19     3     4   ar
    20     4     5   ar
    21     5     6   ar
    22     6     7   ar
    23     7     8   ar
    24     8     9   ar
    25     9    10    1
    26    26    21    1
    27     6     1   ar
    28    19    11    1
    29     9     5   ar
    30    19    15    1
@<TRIPOS>MOLECULE
*****
 26 30 0 0 0
SMALL
GASTEIGER

@<TRIPOS>ATOM
      1 C          63.0244   86.1186   12.9118 C.ar    1  UNL1        0.1510
      2 N          62.1552   85.9628   11.6992 N.ar    1  UNL1       -0.2278
      3 C          61.8055   87.1614   10.8681 C.ar    1  UNL1        0.1001
      4 C          62.3249   88.5160   11.2494 C.ar    1  UNL1        0.0393
      5 C          63.1940   88.6718   12.4619 C.ar    1  UNL1        0.0833
      6 C          63.5438   87.4732   13.2931 C.ar    1  UNL1        0.1302
      7 N          64.4143   87.9321   14.4252 N.ar    1  UNL1       -0.2211
      8 C          64.6026   89.4144   14.2937 C.ar    1  UNL1        0.1787
      9 N          63.8484   89.8716   13.0803 N.ar    1  UNL1       -0.3069
     10 C          63.7635   91.2811   12.5742 C.3     1  UNL1        0.1320
     11 C          60.9363   87.0056    9.6554 C.2     1  UNL1        0.1075
     12 N          59.6218   87.7237    9.5776 N.2     1  UNL1       -0.1501
     13 N          58.7526   87.5679    8.3650 N.2     1  UNL1       -0.1454
     14 C          59.1981   86.6939    7.2303 C.2     1  UNL1        0.1374
     15 C          60.5128   85.9758    7.3081 C.2     1  UNL1        0.0893
     16 N          61.2106   85.0534    6.3531 N.2     1  UNL1       -0.2461
     17 C          62.5111   84.6391    6.9753 C.2     1  UNL1        0.0947
     18 C          62.6169   85.3055    8.3151 C.2     1  UNL1        0.0062
     19 C          61.3819   86.1316    8.5207 C.3     1  UNL1        0.1087
     20 C          64.2059   83.6859   11.6133 C.3     1  UNL1        0.0241
     21 C          63.9649   83.7036   13.0937 C.3     1  UNL1        0.1039
     22 C          64.3145   82.5049   13.9249 C.3     1  UNL1        0.1618
     23 O          64.0735   82.5226   15.4053 O.3     1  UNL1       -0.3502
     24 C          63.4827   83.7389   16.0546 C.3     1  UNL1        0.1636
     25 C          63.1331   84.9376   15.2233 C.3     1  UNL1        0.1242
     26 N          63.3741   84.9199   13.7430 N.pl3   1  UNL1       -0.2886
@<TRIPOS>BOND
     1    21    20    1
     2    21    22    1
     3    22    23    1
     4    23    24    1
     5    24    25    1
     6    25    26    1
     7    26     1    1
     8     1     2   ar
     9     2     3   ar
    10     3    11    1
    11    11    12    2
    12    12    13    1
    13    13    14    2
    14    14    15    1
    15    15    16    2
    16    16    17    1
    17    17    18    2
    18    18    19    1
    19     3     4   ar
    20     4     5   ar
    21     5     6   ar
    22     6     7   ar
    23     7     8   ar
    24     8     9   ar
    25     9    10    1
    26    26    21    1
    27     6     1   ar
    28    19    11    1
    29     9     5   ar
    30    19    15    1
@<TRIPOS>MOLECULE
*****
 26 30 0 0 0
SMALL
GASTEIGER

@<TRIPOS>ATOM
      1 C          62.6283   86.2752   11.9115 C.ar    1  UNL1        0.1510
      2 N          63.2732   87.4046   12.6590 N.ar    1  UNL1       -0.2278
      3 C          63.0338   88.8217   12.2295 C.ar    1  UNL1        0.1001
      4 C          62.1496   89.1095   11.0525 C.ar    1  UNL1        0.0393
      5 C          61.5047   87.9801   10.3050 C.ar    1  UNL1        0.0833
      6 C          61.7441   86.5630   10.7345 C.ar    1  UNL1        0.1302
      7 N          60.9785   85.6630    9.8106 N.ar    1  UNL1       -0.2211
      8 C          60.2659   86.5239    8.8100 C.ar    1  UNL1        0.1787
      9 N          60.5912   87.9559    9.1156 N.ar    1  UNL1       -0.3069
     10 C          60.0907   89.1535    8.3637 C.3     1  UNL1        0.1320
     11 C          63.6787   89.9511   12.9770 C.2     1  UNL1        0.1075
     12 N          64.4440   91.0037   12.2314 N.2     1  UNL1       -0.1501
     13 N          65.0889   92.1331   12.9788 N.2     1  UNL1       -0.1454
     14 C          64.9683   92.2098   14.4720 C.2     1  UNL1        0.1374
     15 C          64.2029   91.1571   15.2177 C.2     1  UNL1        0.0893
     16 N          63.9157   90.9702   16.6780 N.2     1  UNL1       -0.2461
     17 C          63.0934   89.7253   16.8331 C.2     1  UNL1        0.0947
     18 C          62.8723   89.1428   15.4685 C.2     1  UNL1        0.0062
     19 C          63.5581   90.0277   14.4702 C.3     1  UNL1        0.1087
     20 C          63.7460   84.2858    9.9639 C.3     1  UNL1        0.0241
     21 C          63.4265   83.8634   11.3673 C.3     1  UNL1        0.1039
     22 C          63.6659   82.4463   11.7970 C.3     1  UNL1        0.1618
     23 O          63.3464   82.0240   13.2004 O.3     1  UNL1       -0.3502
     24 C          62.7876   83.0186   14.1742 C.3     1  UNL1        0.1636
     25 C          62.5483   84.4357   13.7445 C.3     1  UNL1        0.1242
     26 N          62.8677   84.8581   12.3411 N.pl3   1  UNL1       -0.2886
@<TRIPOS>BOND
     1    21    20    1
     2    21    22    1
     3    22    23    1
     4    23    24    1
     5    24    25    1
     6    25    26    1
     7    26     1    1
     8     1     2   ar
     9     2     3   ar
    10     3    11    1
    11    11    12    2
    12    12    13    1
    13    13    14    2
    14    14    15    1
    15    15    16    2
    16    16    17    1
    17    17    18    2
    18    18    19    1
    19     3     4   ar
    20     4     5   ar
    21     5     6   ar
    22     6     7   ar
    23     7     8   ar
    24     8     9   ar
    25     9    10    1
    26    26    21    1
    27     6     1   ar
    28    19    11    1
    29     9     5   ar
    30    19    15    1
@<TRIPOS>MOLECULE
*****
 26 30 0 0 0
SMALL
GASTEIGER

@<TRIPOS>ATOM
      1 C          62.2430   87.8065   11.7001 C.ar    1  UNL1        0.1510
      2 N          62.5941   88.9597   12.5928 N.ar    1  UNL1       -0.2278
      3 C          63.4755   88.7426   13.7869 C.ar    1  UNL1        0.1001
      4 C          64.0058   87.3722   14.0884 C.ar    1  UNL1        0.0393
      5 C          63.6547   86.2190   13.1957 C.ar    1  UNL1        0.0833
      6 C          62.7733   86.4361   12.0016 C.ar    1  UNL1        0.1302
      7 N          62.5993   85.1176   11.3080 N.ar    1  UNL1       -0.2211
      8 C          63.3732   84.0855   12.0734 C.ar    1  UNL1        0.1787
      9 N          64.0255   84.7662   13.2401 N.ar    1  UNL1       -0.3069
     10 C          64.8957   84.1095   14.2704 C.3     1  UNL1        0.1320
     11 C          63.8266   89.8958   14.6796 C.2     1  UNL1        0.1075
     12 N          63.2573   89.9722   16.0651 N.2     1  UNL1       -0.1501
     13 N          63.6084   91.1254   16.9579 N.2     1  UNL1       -0.1454
     14 C          64.5289   92.2022   16.4649 C.2     1  UNL1        0.1374
     15 C          65.0983   92.1258   15.0792 C.2     1  UNL1        0.0893
     16 N          66.0249   93.0315   14.3235 N.2     1  UNL1       -0.2461
     17 C          66.2465   92.4381   12.9638 C.2     1  UNL1        0.0947
     18 C          65.4568   91.1656   12.8791 C.2     1  UNL1        0.0062
     19 C          64.7472   90.9726   14.1866 C.3     1  UNL1        0.1087
     20 C          62.3007   90.4326   10.2509 C.3     1  UNL1        0.0241
     21 C          61.3904   89.3367    9.7814 C.3     1  UNL1        0.1039
     22 C          60.5090   89.5538    8.5873 C.3     1  UNL1        0.1618
     23 O          59.5987   88.4579    8.1178 O.3     1  UNL1       -0.3502
     24 C          59.5699   87.1449    8.8423 C.3     1  UNL1        0.1636
     25 C          60.4513   86.9278   10.0364 C.3     1  UNL1        0.1242
     26 N          61.3616   88.0237   10.5059 N.pl3   1  UNL1       -0.2886
@<TRIPOS>BOND
     1    21    20    1
     2    21    22    1
     3    22    23    1
     4    23    24    1
     5    24    25    1
     6    25    26    1
     7    26     1    1
     8     1     2   ar
     9     2     3   ar
    10     3    11    1
    11    11    12    2
    12    12    13    1
    13    13    14    2
    14    14    15    1
    15    15    16    2
    16    16    17    1
    17    17    18    2
    18    18    19    1
    19     3     4   ar
    20     4     5   ar
    21     5     6   ar
    22     6     7   ar
    23     7     8   ar
    24     8     9   ar
    25     9    10    1
    26    26    21    1
    27     6     1   ar
    28    19    11    1
    29     9     5   ar
    30    19    15    1
@<TRIPOS>MOLECULE
*****
 26 30 0 0 0
SMALL
GASTEIGER

@<TRIPOS>ATOM
      1 C          63.2902   88.0175   12.6439 C.ar    1  UNL1        0.1510
      2 N          64.0988   89.2786   12.7217 N.ar    1  UNL1       -0.2278
      3 C          63.8037   90.4174   11.7912 C.ar    1  UNL1        0.1001
      4 C          62.6999   90.2952   10.7829 C.ar    1  UNL1        0.0393
      5 C          61.8913   89.0343   10.7050 C.ar    1  UNL1        0.0833
      6 C          62.1865   87.8954   11.6355 C.ar    1  UNL1        0.1302
      7 N          61.2276   86.7840   11.3267 N.ar    1  UNL1       -0.2211
      8 C          60.3399   87.2360   10.2053 C.ar    1  UNL1        0.1787
      9 N          60.7501   88.6267    9.8210 N.ar    1  UNL1       -0.3069
     10 C          60.1282   89.4630    8.7422 C.3     1  UNL1        0.1320
     11 C          64.6122   91.6784   11.8690 C.2     1  UNL1        0.1075
     12 N          64.7547   92.5539   10.6595 N.2     1  UNL1       -0.1501
     13 N          65.5633   93.8149   10.7373 N.2     1  UNL1       -0.1454
     14 C          66.2294   94.2004   12.0248 C.2     1  UNL1        0.1374
     15 C          66.0869   93.3249   13.2344 C.2     1  UNL1        0.0893
     16 N          66.6243   93.4456   14.6296 N.2     1  UNL1       -0.2461
     17 C          66.1479   92.2592   15.4141 C.2     1  UNL1        0.0947
     18 C          65.3160   91.4052   14.5037 C.2     1  UNL1        0.0062
     19 C          65.2783   92.0639   13.1565 C.3     1  UNL1        0.1087
     20 C          63.7642   88.5463   15.5587 C.3     1  UNL1        0.0241
     21 C          63.8224   87.1431   15.0318 C.3     1  UNL1        0.1039
     22 C          64.1176   86.0042   15.9623 C.3     1  UNL1        0.1618
     23 O          64.1758   84.6010   15.4355 O.3     1  UNL1       -0.3502
     24 C          63.9388   84.3366   13.9781 C.3     1  UNL1        0.1636
     25 C          63.6436   85.4755   13.0476 C.3     1  UNL1        0.1242
     26 N          63.5854   86.8787   13.5745 N.pl3   1  UNL1       -0.2886
@<TRIPOS>BOND
     1    21    20    1
     2    21    22    1
     3    22    23    1
     4    23    24    1
     5    24    25    1
     6    25    26    1
     7    26     1    1
     8     1     2   ar
     9     2     3   ar
    10     3    11    1
    11    11    12    2
    12    12    13    1
    13    13    14    2
    14    14    15    1
    15    15    16    2
    16    16    17    1
    17    17    18    2
    18    18    19    1
    19     3     4   ar
    20     4     5   ar
    21     5     6   ar
    22     6     7   ar
    23     7     8   ar
    24     8     9   ar
    25     9    10    1
    26    26    21    1
    27     6     1   ar
    28    19    11    1
    29     9     5   ar
    30    19    15    1
