@<TRIPOS>MOLECULE
*****
 18 19 0 0 0
SMALL
GASTEIGER

@<TRIPOS>ATOM
      1 C          62.6730   85.3682    9.6126 C.2     1  UNL1        0.0034
      2 C          62.5240   84.6559   10.9242 C.2     1  UNL1        0.0435
      3 C          61.2646   89.0784    9.6360 C.ar    1  UNL1        0.1387
      4 C          60.1062   88.9479    8.6921 C.ar    1  UNL1        0.0369
      5 C          59.8034   87.6241    8.0550 C.ar    1  UNL1        0.0031
      6 C          60.6589   86.4309    8.3618 C.ar    1  UNL1        0.0002
      7 C          61.8173   86.5614    9.3057 C.ar    1  UNL1        0.0031
      8 C          62.1202   87.8852    9.9428 C.ar    1  UNL1        0.0369
      9 C          62.9621   90.9528   10.2319 C.3     1  UNL1        0.2525
     10 O          61.5675   90.4022   10.2731 O.3     1  UNL1       -0.4714
     11 C          63.3797   83.4626   11.2311 C.2     1  UNL1        0.2111
     12 O          64.7030   83.2924   10.5456 O.2     1  UNL1       -0.2850
     13 C          62.9120   82.4396   12.2234 C.ar    1  UNL1        0.0961
     14 C          62.8813   80.9550   12.0111 C.ar    1  UNL1        0.0218
     15 C          62.3432   80.3195   13.2587 C.ar    1  UNL1        0.0200
     16 C          62.0413   81.4113   14.2421 C.ar    1  UNL1        0.0725
     17 N          62.3928   82.7216   13.6022 N.ar    1  UNL1       -0.3495
     18 H          62.2993   83.6106   14.0147 H       1  UNL1        0.1661
@<TRIPOS>BOND
     1     9    10    1
     2    10     3    1
     3     3     4   ar
     4     4     5   ar
     5     5     6   ar
     6     6     7   ar
     7     7     1    1
     8     1     2    2
     9     2    11    1
    10    11    12    2
    11    11    13    1
    12    13    14   ar
    13    14    15   ar
    14    15    16   ar
    15    16    17   ar
    16     7     8   ar
    17     8     3   ar
    18    17    13   ar
    19    17    18    1
@<TRIPOS>MOLECULE
*****
 18 19 0 0 0
SMALL
GASTEIGER

@<TRIPOS>ATOM
      1 C          61.9250   85.4448   10.9307 C.2     1  UNL1        0.0034
      2 C          62.9216   84.5148   10.3047 C.2     1  UNL1        0.0435
      3 C          60.2955   88.8633    9.7440 C.ar    1  UNL1        0.1387
      4 C          59.7713   88.4738    8.3937 C.ar    1  UNL1        0.0369
      5 C          59.9650   87.0746    7.8890 C.ar    1  UNL1        0.0031
      6 C          60.6829   86.0649    8.7346 C.ar    1  UNL1        0.0002
      7 C          61.2071   86.4545   10.0850 C.ar    1  UNL1        0.0031
      8 C          61.0134   87.8537   10.5896 C.ar    1  UNL1        0.0369
      9 C          59.4137   90.4981   11.5606 C.3     1  UNL1        0.2525
     10 O          60.1017   90.2625   10.2487 O.3     1  UNL1       -0.4714
     11 C          63.6395   83.5051   11.1504 C.2     1  UNL1        0.2111
     12 O          64.9320   82.9111   10.6743 O.2     1  UNL1       -0.2850
     13 C          63.0650   83.0895   12.4722 C.ar    1  UNL1        0.0961
     14 C          62.2848   81.8366   12.7395 C.ar    1  UNL1        0.0218
     15 C          61.9073   81.8264   14.1912 C.ar    1  UNL1        0.0200
     16 C          62.4543   83.0732   14.8211 C.ar    1  UNL1        0.0725
     17 N          63.1697   83.8537   13.7586 N.ar    1  UNL1       -0.3495
     18 H          63.6277   84.7162   13.8837 H       1  UNL1        0.1661
@<TRIPOS>BOND
     1     9    10    1
     2    10     3    1
     3     3     4   ar
     4     4     5   ar
     5     5     6   ar
     6     6     7   ar
     7     7     1    1
     8     1     2    2
     9     2    11    1
    10    11    12    2
    11    11    13    1
    12    13    14   ar
    13    14    15   ar
    14    15    16   ar
    15    16    17   ar
    16     7     8   ar
    17     8     3   ar
    18    17    13   ar
    19    17    18    1
@<TRIPOS>MOLECULE
*****
 18 19 0 0 0
SMALL
GASTEIGER

@<TRIPOS>ATOM
      1 C          61.9724   86.0905   10.6357 C.2     1  UNL1        0.0034
      2 C          60.9779   86.0401    9.5140 C.2     1  UNL1        0.0435
      3 C          63.6218   83.1835   12.7755 C.ar    1  UNL1        0.1387
      4 C          64.3447   82.4195   11.7061 C.ar    1  UNL1        0.0369
      5 C          64.2768   82.8791   10.2799 C.ar    1  UNL1        0.0031
      6 C          63.4861   84.1028    9.9231 C.ar    1  UNL1        0.0002
      7 C          62.7632   84.8668   10.9925 C.ar    1  UNL1        0.0031
      8 C          62.8311   84.4071   12.4187 C.ar    1  UNL1        0.0369
      9 C          62.8394   83.3866   15.2446 C.3     1  UNL1        0.2525
     10 O          63.6897   82.7238   14.2018 O.3     1  UNL1       -0.4714
     11 C          60.1871   87.2639    9.1573 C.2     1  UNL1        0.2111
     12 O          59.5828   87.3942    7.7906 O.2     1  UNL1       -0.2850
     13 C          60.0006   88.3571   10.1672 C.ar    1  UNL1        0.0961
     14 C          60.2028   89.8238    9.9263 C.ar    1  UNL1        0.0218
     15 C          59.9063   90.5488   11.2055 C.ar    1  UNL1        0.0200
     16 C          59.5209   89.5302   12.2370 C.ar    1  UNL1        0.0725
     17 N          59.5792   88.1757   11.5953 N.ar    1  UNL1       -0.3495
     18 H          59.3764   87.3182   12.0343 H       1  UNL1        0.1661
@<TRIPOS>BOND
     1     9    10    1
     2    10     3    1
     3     3     4   ar
     4     4     5   ar
     5     5     6   ar
     6     6     7   ar
     7     7     1    1
     8     1     2    2
     9     2    11    1
    10    11    12    2
    11    11    13    1
    12    13    14   ar
    13    14    15   ar
    14    15    16   ar
    15    16    17   ar
    16     7     8   ar
    17     8     3   ar
    18    17    13   ar
    19    17    18    1
@<TRIPOS>MOLECULE
*****
 18 19 0 0 0
SMALL
GASTEIGER

@<TRIPOS>ATOM
      1 C          64.2850   91.4352   12.4907 C.2     1  UNL1        0.0034
      2 C          65.1751   92.3756   11.7335 C.2     1  UNL1        0.0435
      3 C          62.4265   88.0717   11.4993 C.ar    1  UNL1        0.1387
      4 C          61.6945   88.5057   10.2642 C.ar    1  UNL1        0.0369
      5 C          61.8259   89.9163    9.7712 C.ar    1  UNL1        0.0031
      6 C          62.6894   90.8928   10.5133 C.ar    1  UNL1        0.0002
      7 C          63.4214   90.4587   11.7484 C.ar    1  UNL1        0.0031
      8 C          63.2900   89.0482   12.2415 C.ar    1  UNL1        0.0369
      9 C          61.7815   85.5909   11.0754 C.3     1  UNL1        0.2525
     10 O          62.2951   86.6611   11.9923 O.3     1  UNL1       -0.4714
     11 C          66.0387   93.3521   12.4757 C.2     1  UNL1        0.2111
     12 O          66.2785   94.7211   11.9114 O.2     1  UNL1       -0.2850
     13 C          66.6624   92.9597   13.7822 C.ar    1  UNL1        0.0961
     14 C          67.7725   91.9679   13.9665 C.ar    1  UNL1        0.0218
     15 C          68.0817   91.8853   15.4320 C.ar    1  UNL1        0.0200
     16 C          67.1627   92.8261   16.1534 C.ar    1  UNL1        0.0725
     17 N          66.2855   93.4901   15.1337 N.ar    1  UNL1       -0.3495
     18 H          65.5854   94.1569   15.3190 H       1  UNL1        0.1661
@<TRIPOS>BOND
     1     9    10    1
     2    10     3    1
     3     3     4   ar
     4     4     5   ar
     5     5     6   ar
     6     6     7   ar
     7     7     1    1
     8     1     2    2
     9     2    11    1
    10    11    12    2
    11    11    13    1
    12    13    14   ar
    13    14    15   ar
    14    15    16   ar
    15    16    17   ar
    16     7     8   ar
    17     8     3   ar
    18    17    13   ar
    19    17    18    1
@<TRIPOS>MOLECULE
*****
 18 19 0 0 0
SMALL
GASTEIGER

@<TRIPOS>ATOM
      1 C          62.4614   85.3307    9.8487 C.2     1  UNL1        0.0034
      2 C          62.8370   84.8062   11.2029 C.2     1  UNL1        0.0435
      3 C          60.1198   88.2581    8.5458 C.ar    1  UNL1        0.1387
      4 C          60.5283   89.3756    9.4592 C.ar    1  UNL1        0.0369
      5 C          61.5811   89.1449   10.5024 C.ar    1  UNL1        0.0031
      6 C          62.2255   87.7966   10.6323 C.ar    1  UNL1        0.0002
      7 C          61.8170   86.6791    9.7189 C.ar    1  UNL1        0.0031
      8 C          60.7642   86.9099    8.6757 C.ar    1  UNL1        0.0369
      9 C          59.2785   89.5265    6.4403 C.3     1  UNL1        0.2525
     10 O          59.0670   88.4889    7.5026 O.3     1  UNL1       -0.4714
     11 C          63.4813   83.4579   11.3327 C.2     1  UNL1        0.2111
     12 O          64.6812   83.1167   10.4997 O.2     1  UNL1       -0.2850
     13 C          62.9258   82.4507   12.2955 C.ar    1  UNL1        0.0961
     14 C          62.8675   80.9670   12.0833 C.ar    1  UNL1        0.0218
     15 C          62.2367   80.3497   13.2962 C.ar    1  UNL1        0.0200
     16 C          61.9051   81.4520   14.2581 C.ar    1  UNL1        0.0725
     17 N          62.3310   82.7505   13.6396 N.ar    1  UNL1       -0.3495
     18 H          62.2368   83.6429   14.0446 H       1  UNL1        0.1661
@<TRIPOS>BOND
     1     9    10    1
     2    10     3    1
     3     3     4   ar
     4     4     5   ar
     5     5     6   ar
     6     6     7   ar
     7     7     1    1
     8     1     2    2
     9     2    11    1
    10    11    12    2
    11    11    13    1
    12    13    14   ar
    13    14    15   ar
    14    15    16   ar
    15    16    17   ar
    16     7     8   ar
    17     8     3   ar
    18    17    13   ar
    19    17    18    1
@<TRIPOS>MOLECULE
*****
 18 19 0 0 0
SMALL
GASTEIGER

@<TRIPOS>ATOM
      1 C          63.1328   91.1834   10.4679 C.2     1  UNL1        0.0034
      2 C          62.0818   90.3777   11.1723 C.2     1  UNL1        0.0435
      3 C          66.4428   93.1953   11.3322 C.ar    1  UNL1        0.1387
      4 C          66.6287   92.8289   12.7748 C.ar    1  UNL1        0.0369
      5 C          65.6493   91.9141   13.4485 C.ar    1  UNL1        0.0031
      6 C          64.4840   91.3656   12.6796 C.ar    1  UNL1        0.0002
      7 C          64.2982   91.7319   11.2369 C.ar    1  UNL1        0.0031
      8 C          65.2775   92.6468   10.5632 C.ar    1  UNL1        0.0369
      9 C          67.8810   93.8191    9.2604 C.3     1  UNL1        0.2525
     10 O          67.4221   94.1101   10.6585 O.3     1  UNL1       -0.4714
     11 C          60.9165   89.8292   10.4033 C.2     1  UNL1        0.2111
     12 O          59.6500   90.6251   10.2920 O.2     1  UNL1       -0.2850
     13 C          61.0178   88.4849    9.7457 C.ar    1  UNL1        0.0961
     14 C          62.2205   87.5885    9.7524 C.ar    1  UNL1        0.0218
     15 C          61.8802   86.3505    8.9768 C.ar    1  UNL1        0.0200
     16 C          60.4672   86.4818    8.4907 C.ar    1  UNL1        0.0725
     17 N          59.9342   87.8009    8.9660 N.ar    1  UNL1       -0.3495
     18 H          59.0317   88.1555    8.7960 H       1  UNL1        0.1661
@<TRIPOS>BOND
     1     9    10    1
     2    10     3    1
     3     3     4   ar
     4     4     5   ar
     5     5     6   ar
     6     6     7   ar
     7     7     1    1
     8     1     2    2
     9     2    11    1
    10    11    12    2
    11    11    13    1
    12    13    14   ar
    13    14    15   ar
    14    15    16   ar
    15    16    17   ar
    16     7     8   ar
    17     8     3   ar
    18    17    13   ar
    19    17    18    1
@<TRIPOS>MOLECULE
*****
 18 19 0 0 0
SMALL
GASTEIGER

@<TRIPOS>ATOM
      1 C          62.8109   84.8077   12.0142 C.2     1  UNL1        0.0034
      2 C          62.9202   83.3680   12.4207 C.2     1  UNL1        0.0435
      3 C          60.7404   86.3328    8.9915 C.ar    1  UNL1        0.1387
      4 C          61.5633   85.8742    7.8243 C.ar    1  UNL1        0.0369
      5 C          62.8021   85.0602    8.0537 C.ar    1  UNL1        0.0031
      6 C          63.2180   84.7046    9.4503 C.ar    1  UNL1        0.0002
      7 C          62.3951   85.1632   10.6175 C.ar    1  UNL1        0.0031
      8 C          61.1562   85.9773   10.3881 C.ar    1  UNL1        0.0369
      9 C          59.4532   88.1384    7.6376 C.3     1  UNL1        0.2525
     10 O          59.5015   87.1468    8.7620 O.3     1  UNL1       -0.4714
     11 C          63.3360   83.0125   13.8175 C.2     1  UNL1        0.2111
     12 O          63.7839   81.6164   14.1342 O.2     1  UNL1       -0.2850
     13 C          63.3041   84.0531   14.8973 C.ar    1  UNL1        0.0961
     14 C          62.1264   84.3888   15.7635 C.ar    1  UNL1        0.0218
     15 C          62.5386   85.4839   16.7021 C.ar    1  UNL1        0.0200
     16 C          63.9711   85.8249   16.4160 C.ar    1  UNL1        0.0725
     17 N          64.4441   84.9406   15.3006 N.ar    1  UNL1       -0.3495
     18 H          65.3448   84.9424   14.9029 H       1  UNL1        0.1661
@<TRIPOS>BOND
     1     9    10    1
     2    10     3    1
     3     3     4   ar
     4     4     5   ar
     5     5     6   ar
     6     6     7   ar
     7     7     1    1
     8     1     2    2
     9     2    11    1
    10    11    12    2
    11    11    13    1
    12    13    14   ar
    13    14    15   ar
    14    15    16   ar
    15    16    17   ar
    16     7     8   ar
    17     8     3   ar
    18    17    13   ar
    19    17    18    1
@<TRIPOS>MOLECULE
*****
 18 19 0 0 0
SMALL
GASTEIGER

@<TRIPOS>ATOM
      1 C          62.2909   86.1490   11.3736 C.2     1  UNL1        0.0034
      2 C          62.0329   86.8741   10.0862 C.2     1  UNL1        0.0435
      3 C          63.0590   82.4285   12.5215 C.ar    1  UNL1        0.1387
      4 C          63.7570   81.8951   11.3057 C.ar    1  UNL1        0.0369
      5 C          63.9664   82.7798   10.1125 C.ar    1  UNL1        0.0031
      6 C          63.4777   84.1977   10.1352 C.ar    1  UNL1        0.0002
      7 C          62.7796   84.7310   11.3510 C.ar    1  UNL1        0.0031
      8 C          62.5703   83.8464   12.5441 C.ar    1  UNL1        0.0369
      9 C          61.4623   81.1307   14.1078 C.3     1  UNL1        0.2525
     10 O          62.8496   81.5439   13.7147 O.3     1  UNL1       -0.4714
     11 C          61.5441   88.2921   10.1088 C.2     1  UNL1        0.2111
     12 O          60.2862   88.6635    9.3811 O.2     1  UNL1       -0.2850
     13 C          62.3133   89.3386   10.8593 C.ar    1  UNL1        0.0961
     14 C          63.0157   90.5187   10.2560 C.ar    1  UNL1        0.0218
     15 C          63.6517   91.2982   11.3686 C.ar    1  UNL1        0.0200
     16 C          63.3422   90.5998   12.6596 C.ar    1  UNL1        0.0725
     17 N          62.5151   89.3888   12.3448 N.ar    1  UNL1       -0.3495
     18 H          62.1660   88.7406   12.9984 H       1  UNL1        0.1661
@<TRIPOS>BOND
     1     9    10    1
     2    10     3    1
     3     3     4   ar
     4     4     5   ar
     5     5     6   ar
     6     6     7   ar
     7     7     1    1
     8     1     2    2
     9     2    11    1
    10    11    12    2
    11    11    13    1
    12    13    14   ar
    13    14    15   ar
    14    15    16   ar
    15    16    17   ar
    16     7     8   ar
    17     8     3   ar
    18    17    13   ar
    19    17    18    1
@<TRIPOS>MOLECULE
*****
 18 19 0 0 0
SMALL
GASTEIGER

@<TRIPOS>ATOM
      1 C          63.6044   91.2330   11.2417 C.2     1  UNL1        0.0034
      2 C          64.4411   91.2143   12.4865 C.2     1  UNL1        0.0435
      3 C          62.0175   87.5960   11.3055 C.ar    1  UNL1        0.1387
      4 C          60.9468   87.7356   10.2643 C.ar    1  UNL1        0.0369
      5 C          60.7620   89.0410    9.5489 C.ar    1  UNL1        0.0031
      6 C          61.6478   90.2068    9.8747 C.ar    1  UNL1        0.0002
      7 C          62.7185   90.0672   10.9158 C.ar    1  UNL1        0.0031
      8 C          62.9034   88.7618   11.6312 C.ar    1  UNL1        0.0369
      9 C          62.3014   85.0143   11.2390 C.3     1  UNL1        0.2525
     10 O          62.2024   86.2906   12.0209 O.3     1  UNL1       -0.4714
     11 C          65.3270   92.3802   12.8123 C.2     1  UNL1        0.2111
     12 O          65.5765   92.7557   14.2429 O.2     1  UNL1       -0.2850
     13 C          65.9634   93.1703   11.7075 C.ar    1  UNL1        0.0961
     14 C          66.8965   92.6327   10.6634 C.ar    1  UNL1        0.0218
     15 C          67.2882   93.7669    9.7634 C.ar    1  UNL1        0.0200
     16 C          66.5971   95.0057   10.2513 C.ar    1  UNL1        0.0725
     17 N          65.7783   94.6369   11.4528 N.ar    1  UNL1       -0.3495
     18 H          65.2179   95.2499   11.9814 H       1  UNL1        0.1661
@<TRIPOS>BOND
     1     9    10    1
     2    10     3    1
     3     3     4   ar
     4     4     5   ar
     5     5     6   ar
     6     6     7   ar
     7     7     1    1
     8     1     2    2
     9     2    11    1
    10    11    12    2
    11    11    13    1
    12    13    14   ar
    13    14    15   ar
    14    15    16   ar
    15    16    17   ar
    16     7     8   ar
    17     8     3   ar
    18    17    13   ar
    19    17    18    1
