@<TRIPOS>MOLECULE
*****
 33 36 0 0 0
SMALL
GASTEIGER

@<TRIPOS>ATOM
      1 O          61.8651   85.7149   10.4872 O.2     1  UNL1       -0.2522
      2 C          62.7523   86.0299   11.6550 C.2     1  UNL1        0.3077
      3 N          63.4620   84.9235   12.3776 N.am    1  UNL1       -0.2681
      4 N          62.9299   87.4513   12.1001 N.am    1  UNL1       -0.2637
      5 C          62.2202   88.5577   11.3775 C.3     1  UNL1        0.0950
      6 C          62.3978   89.9790   11.8226 C.3     1  UNL1        0.0219
      7 C          63.2850   90.2940   12.9903 C.3     1  UNL1        0.0075
      8 C          63.9947   89.1876   13.7129 C.3     1  UNL1        0.0379
      9 C          63.8172   87.7663   13.2678 C.3     1  UNL1        0.0989
     10 H          64.0444   85.1302   13.1440 H       1  UNL1        0.1564
     11 C          63.2845   83.5020   11.9325 C.ar    1  UNL1        0.0516
     12 C          62.5346   82.5332   12.7979 C.ar    1  UNL1        0.0156
     13 C          62.3571   81.1119   12.3528 C.ar    1  UNL1        0.0127
     14 C          62.9295   80.6593   11.0422 C.ar    1  UNL1        0.0578
     15 CL         62.7519   79.2379   10.5971 Cl      1  UNL1       -0.0822
     16 C          63.6794   81.6281   10.1768 C.ar    1  UNL1        0.0127
     17 C          63.8569   83.0494   10.6219 C.ar    1  UNL1        0.0156
     18 C          64.4770   90.3670   14.5044 C.ar    1  UNL1       -0.0212
     19 C          63.8091   90.7252   15.7989 C.ar    1  UNL1       -0.0042
     20 C          64.2913   91.9046   16.5905 C.ar    1  UNL1       -0.0003
     21 C          65.4414   92.7258   16.0875 C.ar    1  UNL1       -0.0000
     22 C          66.1092   92.3676   14.7930 C.ar    1  UNL1       -0.0003
     23 C          65.6270   91.1882   14.0014 C.ar    1  UNL1       -0.0042
     24 C          64.8719   88.4908   14.7104 C.3     1  UNL1        0.0185
     25 C          64.7418   87.0111   14.9190 C.3     1  UNL1        0.1214
     26 C          63.5868   86.4630   15.7036 C.2     1  UNL1        0.3387
     27 N          62.8753   85.1694   15.4379 N.2     1  UNL1        0.0551
     28 N          61.7893   85.0190   16.4616 N.pl3   1  UNL1       -0.0731
     29 N          61.8296   86.2197   17.3599 N.3     1  UNL1       -0.0526
     30 N          62.9405   87.1120   16.8914 N.pl3   1  UNL1       -0.1384
     31 H          61.1605   84.2648   16.5316 H       1  UNL1        0.2196
     32 H          62.0030   85.9269   18.3215 H       1  UNL1        0.1969
     33 H          63.1999   87.9726   17.2930 H       1  UNL1        0.3193
@<TRIPOS>BOND
     1     1     2    2
     2     2     3   am
     3     3    11    1
     4    11    12   ar
     5    12    13   ar
     6    13    14   ar
     7    14    15    1
     8    14    16   ar
     9    16    17   ar
    10     2     4   am
    11     4     5    1
    12     5     6    1
    13     6     7    1
    14     7     8    1
    15     8    24    1
    16    24    25    1
    17    25    26    1
    18    26    27    2
    19    27    28    1
    20    28    29    1
    21    29    30    1
    22     8    18    1
    23    18    19   ar
    24    19    20   ar
    25    20    21   ar
    26    21    22   ar
    27    22    23   ar
    28     8     9    1
    29    17    11   ar
    30     9     4    1
    31    30    26    1
    32    23    18   ar
    33     3    10    1
    34    28    31    1
    35    29    32    1
    36    30    33    1
@<TRIPOS>MOLECULE
*****
 33 36 0 0 0
SMALL
GASTEIGER

@<TRIPOS>ATOM
      1 O          61.1430   89.2000   13.1207 O.2     1  UNL1       -0.2522
      2 C          62.4729   89.6995   12.6393 C.2     1  UNL1        0.3077
      3 N          62.8522   89.5503   11.1958 N.am    1  UNL1       -0.2681
      4 N          63.4234   90.3484   13.6014 N.am    1  UNL1       -0.2637
      5 C          63.0440   90.4976   15.0449 C.3     1  UNL1        0.0950
      6 C          63.9945   91.1465   16.0069 C.3     1  UNL1        0.0219
      7 C          65.3244   91.6461   15.5254 C.3     1  UNL1        0.0075
      8 C          65.7038   91.4968   14.0819 C.3     1  UNL1        0.0379
      9 C          64.7533   90.8480   13.1199 C.3     1  UNL1        0.0989
     10 H          63.7251   89.8782   10.8798 H       1  UNL1        0.1564
     11 C          61.9017   88.9015   10.2337 C.ar    1  UNL1        0.0516
     12 C          60.8403   89.7203    9.5607 C.ar    1  UNL1        0.0156
     13 C          59.8898   89.0714    8.5987 C.ar    1  UNL1        0.0127
     14 C          60.0008   87.6037    8.3096 C.ar    1  UNL1        0.0578
     15 CL         59.0503   86.9549    7.3475 Cl      1  UNL1       -0.0822
     16 C          61.0623   86.7849    8.9825 C.ar    1  UNL1        0.0127
     17 C          62.0127   87.4338    9.9445 C.ar    1  UNL1        0.0156
     18 C          66.9345   92.1757   14.6058 C.ar    1  UNL1       -0.0212
     19 C          66.8074   93.3382   15.5452 C.ar    1  UNL1       -0.0042
     20 C          68.0381   94.0171   16.0691 C.ar    1  UNL1       -0.0003
     21 C          69.3959   93.5335   15.6536 C.ar    1  UNL1       -0.0000
     22 C          69.5229   92.3710   14.7142 C.ar    1  UNL1       -0.0003
     23 C          68.2922   91.6921   14.1903 C.ar    1  UNL1       -0.0042
     24 C          66.5106   91.5834   12.8203 C.3     1  UNL1        0.0185
     25 C          66.1651   92.6049   11.7777 C.3     1  UNL1        0.1214
     26 C          67.2217   93.1033   10.8369 C.2     1  UNL1        0.3387
     27 N          68.4379   92.3444   10.3951 N.2     1  UNL1        0.0551
     28 N          69.2155   93.2201    9.4578 N.pl3   1  UNL1       -0.0731
     29 N          68.4799   94.5201    9.3203 N.3     1  UNL1       -0.0526
     30 N          67.2478   94.4479   10.1726 N.pl3   1  UNL1       -0.1384
     31 H          70.0603   92.9832    9.0112 H       1  UNL1        0.2196
     32 H          68.2184   94.6685    8.3456 H       1  UNL1        0.1969
     33 H          66.5744   95.1583   10.2776 H       1  UNL1        0.3193
@<TRIPOS>BOND
     1     1     2    2
     2     2     3   am
     3     3    11    1
     4    11    12   ar
     5    12    13   ar
     6    13    14   ar
     7    14    15    1
     8    14    16   ar
     9    16    17   ar
    10     2     4   am
    11     4     5    1
    12     5     6    1
    13     6     7    1
    14     7     8    1
    15     8    24    1
    16    24    25    1
    17    25    26    1
    18    26    27    2
    19    27    28    1
    20    28    29    1
    21    29    30    1
    22     8    18    1
    23    18    19   ar
    24    19    20   ar
    25    20    21   ar
    26    21    22   ar
    27    22    23   ar
    28     8     9    1
    29    17    11   ar
    30     9     4    1
    31    30    26    1
    32    23    18   ar
    33     3    10    1
    34    28    31    1
    35    29    32    1
    36    30    33    1
@<TRIPOS>MOLECULE
*****
 33 36 0 0 0
SMALL
GASTEIGER

@<TRIPOS>ATOM
      1 O          62.7335   91.2864    8.9578 O.2     1  UNL1       -0.2522
      2 C          63.1965   90.7699   10.2878 C.2     1  UNL1        0.3077
      3 N          62.6481   89.4809   10.8240 N.am    1  UNL1       -0.2681
      4 N          64.2080   91.5425   11.0815 N.am    1  UNL1       -0.2637
      5 C          64.7564   92.8316   10.5453 C.3     1  UNL1        0.0950
      6 C          65.7679   93.6041   11.3391 C.3     1  UNL1        0.0219
      7 C          66.2309   93.0876   12.6690 C.3     1  UNL1        0.0075
      8 C          65.6825   91.7986   13.2053 C.3     1  UNL1        0.0379
      9 C          64.6711   91.0261   12.4115 C.3     1  UNL1        0.0989
     10 H          62.9520   89.1419   11.6969 H       1  UNL1        0.1564
     11 C          61.6366   88.7082   10.0302 C.ar    1  UNL1        0.0516
     12 C          60.4414   89.4083    9.4545 C.ar    1  UNL1        0.0156
     13 C          59.4300   88.6356    8.6608 C.ar    1  UNL1        0.0127
     14 C          59.6138   87.1630    8.4428 C.ar    1  UNL1        0.0578
     15 CL         58.6023   86.3904    7.6490 Cl      1  UNL1       -0.0822
     16 C          60.8089   86.4630    9.0185 C.ar    1  UNL1        0.0127
     17 C          61.8204   87.2356    9.8122 C.ar    1  UNL1        0.0156
     18 C          66.6161   92.1681   14.3197 C.ar    1  UNL1       -0.0212
     19 C          68.0914   92.2572   14.0637 C.ar    1  UNL1       -0.0042
     20 C          69.0251   92.6266   15.1781 C.ar    1  UNL1       -0.0003
     21 C          68.4833   92.9070   16.5485 C.ar    1  UNL1       -0.0000
     22 C          67.0080   92.8179   16.8045 C.ar    1  UNL1       -0.0003
     23 C          66.0744   92.4484   15.6900 C.ar    1  UNL1       -0.0042
     24 C          65.4583   90.6378   14.1285 C.3     1  UNL1        0.0185
     25 C          64.3192   89.6933   13.8830 C.3     1  UNL1        0.1214
     26 C          63.8884   88.7419   14.9596 C.2     1  UNL1        0.3387
     27 N          64.0841   87.2547   14.9519 N.2     1  UNL1        0.0551
     28 N          63.5028   86.7042   16.2205 N.pl3   1  UNL1       -0.0731
     29 N          62.9478   87.8512   17.0120 N.3     1  UNL1       -0.0526
     30 N          63.1861   89.1104   16.2327 N.pl3   1  UNL1       -0.1384
     31 H          63.4882   85.7565   16.4867 H       1  UNL1        0.2196
     32 H          63.4187   87.9085   17.9150 H       1  UNL1        0.1969
     33 H          62.9271   90.0193   16.5085 H       1  UNL1        0.3193
@<TRIPOS>BOND
     1     1     2    2
     2     2     3   am
     3     3    11    1
     4    11    12   ar
     5    12    13   ar
     6    13    14   ar
     7    14    15    1
     8    14    16   ar
     9    16    17   ar
    10     2     4   am
    11     4     5    1
    12     5     6    1
    13     6     7    1
    14     7     8    1
    15     8    24    1
    16    24    25    1
    17    25    26    1
    18    26    27    2
    19    27    28    1
    20    28    29    1
    21    29    30    1
    22     8    18    1
    23    18    19   ar
    24    19    20   ar
    25    20    21   ar
    26    21    22   ar
    27    22    23   ar
    28     8     9    1
    29    17    11   ar
    30     9     4    1
    31    30    26    1
    32    23    18   ar
    33     3    10    1
    34    28    31    1
    35    29    32    1
    36    30    33    1
@<TRIPOS>MOLECULE
*****
 33 36 0 0 0
SMALL
GASTEIGER

@<TRIPOS>ATOM
      1 O          61.6473   85.4262   11.0799 O.2     1  UNL1       -0.2522
      2 C          62.5568   85.9702   12.1415 C.2     1  UNL1        0.3077
      3 N          63.1403   85.0504   13.1726 N.am    1  UNL1       -0.2681
      4 N          62.8828   87.4341   12.1718 N.am    1  UNL1       -0.2637
      5 C          62.2993   88.3539   11.1406 C.3     1  UNL1        0.0950
      6 C          62.6254   89.8177   11.1709 C.3     1  UNL1        0.0219
      7 C          63.5349   90.3617   12.2325 C.3     1  UNL1        0.0075
      8 C          64.1184   89.4418   13.2636 C.3     1  UNL1        0.0379
      9 C          63.7924   87.9780   13.2333 C.3     1  UNL1        0.0989
     10 H          63.7373   85.4074   13.8694 H       1  UNL1        0.1564
     11 C          62.8143   83.5865   13.1423 C.ar    1  UNL1        0.0516
     12 C          63.2425   82.7468   11.9755 C.ar    1  UNL1        0.0156
     13 C          62.9165   81.2830   11.9453 C.ar    1  UNL1        0.0127
     14 C          62.1623   80.6589   13.0818 C.ar    1  UNL1        0.0578
     15 CL         61.8363   79.1950   13.0515 Cl      1  UNL1       -0.0822
     16 C          61.7341   81.4986   14.2486 C.ar    1  UNL1        0.0127
     17 C          62.0601   82.9624   14.2789 C.ar    1  UNL1        0.0156
     18 C          64.7196   90.7432   13.7054 C.ar    1  UNL1       -0.0212
     19 C          65.2701   91.6986   12.6884 C.ar    1  UNL1       -0.0042
     20 C          65.8713   92.9999   13.1302 C.ar    1  UNL1       -0.0003
     21 C          65.9219   93.3458   14.5889 C.ar    1  UNL1       -0.0000
     22 C          65.3714   92.3904   15.6059 C.ar    1  UNL1       -0.0003
     23 C          64.7702   91.0891   15.1641 C.ar    1  UNL1       -0.0042
     24 C          64.9107   88.9739   14.4483 C.3     1  UNL1        0.0185
     25 C          64.8068   87.5488   14.9046 C.3     1  UNL1        0.1214
     26 C          63.7315   87.1469   15.8701 C.2     1  UNL1        0.3387
     27 N          63.2071   85.7568   16.0771 N.2     1  UNL1        0.0551
     28 N          62.1433   85.8152   17.1330 N.pl3   1  UNL1       -0.0731
     29 N          62.0103   87.2414   17.5786 N.3     1  UNL1       -0.0526
     30 N          62.9918   88.0643   16.7980 N.pl3   1  UNL1       -0.1384
     31 H          61.6237   85.0516   17.4738 H       1  UNL1        0.2196
     32 H          62.2140   87.3130   18.5755 H       1  UNL1        0.1969
     33 H          63.1268   89.0360   16.8804 H       1  UNL1        0.3193
@<TRIPOS>BOND
     1     1     2    2
     2     2     3   am
     3     3    11    1
     4    11    12   ar
     5    12    13   ar
     6    13    14   ar
     7    14    15    1
     8    14    16   ar
     9    16    17   ar
    10     2     4   am
    11     4     5    1
    12     5     6    1
    13     6     7    1
    14     7     8    1
    15     8    24    1
    16    24    25    1
    17    25    26    1
    18    26    27    2
    19    27    28    1
    20    28    29    1
    21    29    30    1
    22     8    18    1
    23    18    19   ar
    24    19    20   ar
    25    20    21   ar
    26    21    22   ar
    27    22    23   ar
    28     8     9    1
    29    17    11   ar
    30     9     4    1
    31    30    26    1
    32    23    18   ar
    33     3    10    1
    34    28    31    1
    35    29    32    1
    36    30    33    1
@<TRIPOS>MOLECULE
*****
 33 36 0 0 0
SMALL
GASTEIGER

@<TRIPOS>ATOM
      1 O          62.9649   90.1324   11.5231 O.2     1  UNL1       -0.2522
      2 C          63.5005   88.9721   12.3083 C.2     1  UNL1        0.3077
      3 N          64.5772   89.1907   13.3296 N.am    1  UNL1       -0.2681
      4 N          62.9595   87.5931   12.0723 N.am    1  UNL1       -0.2637
      5 C          61.8828   87.3745   11.0511 C.3     1  UNL1        0.0950
      6 C          61.3418   85.9955   10.8151 C.3     1  UNL1        0.0219
      7 C          61.8775   84.8351   11.6004 C.3     1  UNL1        0.0075
      8 C          62.9541   85.0537   12.6216 C.3     1  UNL1        0.0379
      9 C          63.4951   86.4327   12.8576 C.3     1  UNL1        0.0989
     10 H          64.9287   88.4291   13.8450 H       1  UNL1        0.1564
     11 C          65.1182   90.5697   13.5656 C.ar    1  UNL1        0.0516
     12 C          65.2170   91.5416   12.4274 C.ar    1  UNL1        0.0156
     13 C          65.7580   92.9205   12.6635 C.ar    1  UNL1        0.0127
     14 C          66.2003   93.3276   14.0378 C.ar    1  UNL1        0.0578
     15 CL         66.7413   94.7066   14.2738 Cl      1  UNL1       -0.0822
     16 C          66.1015   92.3557   15.1760 C.ar    1  UNL1        0.0127
     17 C          65.5605   90.9768   14.9399 C.ar    1  UNL1        0.0156
     18 C          62.7641   83.5719   12.7566 C.ar    1  UNL1       -0.0212
     19 C          62.2836   82.9925   14.0540 C.ar    1  UNL1       -0.0042
     20 C          62.0936   81.5107   14.1890 C.ar    1  UNL1       -0.0003
     21 C          62.3841   80.6084   13.0265 C.ar    1  UNL1       -0.0000
     22 C          62.8647   81.1878   11.7291 C.ar    1  UNL1       -0.0003
     23 C          63.0547   82.6696   11.5941 C.ar    1  UNL1       -0.0042
     24 C          63.9648   84.7577   13.6898 C.3     1  UNL1        0.0185
     25 C          64.4621   85.8595   14.5778 C.3     1  UNL1        0.1214
     26 C          63.5975   86.3742   15.6903 C.2     1  UNL1        0.3387
     27 N          63.5080   87.7992   16.1502 N.2     1  UNL1        0.0551
     28 N          62.5259   87.8600   17.2824 N.pl3   1  UNL1       -0.0731
     29 N          62.0083   86.4726   17.5221 N.3     1  UNL1       -0.0526
     30 N          62.6707   85.5544   16.5381 N.pl3   1  UNL1       -0.1384
     31 H          62.2664   88.6685   17.7806 H       1  UNL1        0.2196
     32 H          60.9974   86.4523   17.3882 H       1  UNL1        0.1969
     33 H          62.5230   84.5841   16.4621 H       1  UNL1        0.3193
@<TRIPOS>BOND
     1     1     2    2
     2     2     3   am
     3     3    11    1
     4    11    12   ar
     5    12    13   ar
     6    13    14   ar
     7    14    15    1
     8    14    16   ar
     9    16    17   ar
    10     2     4   am
    11     4     5    1
    12     5     6    1
    13     6     7    1
    14     7     8    1
    15     8    24    1
    16    24    25    1
    17    25    26    1
    18    26    27    2
    19    27    28    1
    20    28    29    1
    21    29    30    1
    22     8    18    1
    23    18    19   ar
    24    19    20   ar
    25    20    21   ar
    26    21    22   ar
    27    22    23   ar
    28     8     9    1
    29    17    11   ar
    30     9     4    1
    31    30    26    1
    32    23    18   ar
    33     3    10    1
    34    28    31    1
    35    29    32    1
    36    30    33    1
@<TRIPOS>MOLECULE
*****
 33 36 0 0 0
SMALL
GASTEIGER

@<TRIPOS>ATOM
      1 O          62.4617   88.9236   12.5654 O.2     1  UNL1       -0.2522
      2 C          63.5645   89.8855   12.8951 C.2     1  UNL1        0.3077
      3 N          64.3047   89.7614   14.1937 N.am    1  UNL1       -0.2681
      4 N          63.9270   90.9716   11.9259 N.am    1  UNL1       -0.2637
      5 C          63.1867   91.0957   10.6273 C.3     1  UNL1        0.0950
      6 C          63.5492   92.1817    9.6583 C.3     1  UNL1        0.0219
      7 C          64.6520   93.1436    9.9879 C.3     1  UNL1        0.0075
      8 C          65.3923   93.0195   11.2865 C.3     1  UNL1        0.0379
      9 C          65.0297   91.9335   12.2556 C.3     1  UNL1        0.0989
     10 H          65.0285   90.3927   14.4101 H       1  UNL1        0.1564
     11 C          63.9422   88.6753   15.1628 C.ar    1  UNL1        0.0516
     12 C          63.2095   89.0124   16.4275 C.ar    1  UNL1        0.0156
     13 C          62.8471   87.9264   17.3965 C.ar    1  UNL1        0.0127
     14 C          63.2173   86.5032   17.1009 C.ar    1  UNL1        0.0578
     15 CL         62.8548   85.4171   18.0700 Cl      1  UNL1       -0.0822
     16 C          63.9500   86.1660   15.8363 C.ar    1  UNL1        0.0127
     17 C          64.3125   87.2521   14.8672 C.ar    1  UNL1        0.0156
     18 C          66.0969   94.2055   10.6975 C.ar    1  UNL1       -0.0212
     19 C          65.9147   95.5644   11.3058 C.ar    1  UNL1       -0.0042
     20 C          66.6193   96.7505   10.7167 C.ar    1  UNL1       -0.0003
     21 C          67.5060   96.5774    9.5193 C.ar    1  UNL1       -0.0000
     22 C          67.6882   95.2185    8.9110 C.ar    1  UNL1       -0.0003
     23 C          66.9836   94.0325    9.5001 C.ar    1  UNL1       -0.0042
     24 C          66.3772   93.3072   12.3807 C.3     1  UNL1        0.0185
     25 C          67.3324   92.2413   12.8294 C.3     1  UNL1        0.1214
     26 C          67.8689   92.2562   14.2301 C.2     1  UNL1        0.3387
     27 N          67.0549   92.1663   15.4869 N.2     1  UNL1        0.0551
     28 N          67.9964   92.2181   16.6535 N.pl3   1  UNL1       -0.0731
     29 N          69.3921   92.3399   16.1177 N.3     1  UNL1       -0.0526
     30 N          69.3132   92.3635   14.6200 N.pl3   1  UNL1       -0.1384
     31 H          67.7427   92.1789   17.6040 H       1  UNL1        0.2196
     32 H          69.9507   91.5427   16.4224 H       1  UNL1        0.1969
     33 H          70.0757   92.4365   14.0015 H       1  UNL1        0.3193
@<TRIPOS>BOND
     1     1     2    2
     2     2     3   am
     3     3    11    1
     4    11    12   ar
     5    12    13   ar
     6    13    14   ar
     7    14    15    1
     8    14    16   ar
     9    16    17   ar
    10     2     4   am
    11     4     5    1
    12     5     6    1
    13     6     7    1
    14     7     8    1
    15     8    24    1
    16    24    25    1
    17    25    26    1
    18    26    27    2
    19    27    28    1
    20    28    29    1
    21    29    30    1
    22     8    18    1
    23    18    19   ar
    24    19    20   ar
    25    20    21   ar
    26    21    22   ar
    27    22    23   ar
    28     8     9    1
    29    17    11   ar
    30     9     4    1
    31    30    26    1
    32    23    18   ar
    33     3    10    1
    34    28    31    1
    35    29    32    1
    36    30    33    1
@<TRIPOS>MOLECULE
*****
 33 36 0 0 0
SMALL
GASTEIGER

@<TRIPOS>ATOM
      1 O          62.2315   84.8895   10.0825 O.2     1  UNL1       -0.2522
      2 C          62.8929   85.2018   11.3921 C.2     1  UNL1        0.3077
      3 N          63.4154   84.0898   12.2525 N.am    1  UNL1       -0.2681
      4 N          63.0318   86.6263   11.8412 N.am    1  UNL1       -0.2637
      5 C          62.5093   87.7383   10.9808 C.3     1  UNL1        0.0950
      6 C          62.6483   89.1627   11.4299 C.3     1  UNL1        0.0219
      7 C          63.3097   89.4751   12.7395 C.3     1  UNL1        0.0075
      8 C          63.8322   88.3630   13.5999 C.3     1  UNL1        0.0379
      9 C          63.6932   86.9386   13.1508 C.3     1  UNL1        0.0989
     10 H          63.8495   84.2948   13.1120 H       1  UNL1        0.1564
     11 C          63.2765   82.6653   11.8033 C.ar    1  UNL1        0.0516
     12 C          63.8424   82.2370   10.4819 C.ar    1  UNL1        0.0156
     13 C          63.7035   80.8126   10.0329 C.ar    1  UNL1        0.0127
     14 C          62.9986   79.8165   10.9052 C.ar    1  UNL1        0.0578
     15 CL         62.8597   78.3920   10.4561 Cl      1  UNL1       -0.0822
     16 C          62.4327   80.2448   12.2266 C.ar    1  UNL1        0.0127
     17 C          62.5716   81.6692   12.6757 C.ar    1  UNL1        0.0156
     18 C          64.1965   89.5437   14.4505 C.ar    1  UNL1       -0.0212
     19 C          63.4458   89.8130   15.7208 C.ar    1  UNL1       -0.0042
     20 C          63.8101   90.9936   16.5714 C.ar    1  UNL1       -0.0003
     21 C          64.9252   91.9048   16.1516 C.ar    1  UNL1       -0.0000
     22 C          65.6759   91.6355   14.8812 C.ar    1  UNL1       -0.0003
     23 C          65.3116   90.4549   14.0306 C.ar    1  UNL1       -0.0042
     24 C          64.4812   87.6610   14.7558 C.3     1  UNL1        0.0185
     25 C          63.6378   86.9379   15.7635 C.3     1  UNL1        0.1214
     26 C          63.4471   85.4540   15.6556 C.2     1  UNL1        0.3387
     27 N          62.1353   84.7280   15.7035 N.2     1  UNL1        0.0551
     28 N          62.4121   83.2609   15.5584 N.pl3   1  UNL1       -0.0731
     29 N          63.8948   83.0802   15.4208 N.3     1  UNL1       -0.0526
     30 N          64.5344   84.4357   15.4809 N.pl3   1  UNL1       -0.1384
     31 H          61.7388   82.5426   15.5542 H       1  UNL1        0.2196
     32 H          64.1080   82.6362   14.5276 H       1  UNL1        0.1969
     33 H          65.4986   84.6239   15.4169 H       1  UNL1        0.3193
@<TRIPOS>BOND
     1     1     2    2
     2     2     3   am
     3     3    11    1
     4    11    12   ar
     5    12    13   ar
     6    13    14   ar
     7    14    15    1
     8    14    16   ar
     9    16    17   ar
    10     2     4   am
    11     4     5    1
    12     5     6    1
    13     6     7    1
    14     7     8    1
    15     8    24    1
    16    24    25    1
    17    25    26    1
    18    26    27    2
    19    27    28    1
    20    28    29    1
    21    29    30    1
    22     8    18    1
    23    18    19   ar
    24    19    20   ar
    25    20    21   ar
    26    21    22   ar
    27    22    23   ar
    28     8     9    1
    29    17    11   ar
    30     9     4    1
    31    30    26    1
    32    23    18   ar
    33     3    10    1
    34    28    31    1
    35    29    32    1
    36    30    33    1
@<TRIPOS>MOLECULE
*****
 33 36 0 0 0
SMALL
GASTEIGER

@<TRIPOS>ATOM
      1 O          65.5753   92.9897    0.2333 O.2     1  UNL1       -0.2522
      2 C          64.1138   93.2313    0.4692 C.2     1  UNL1        0.3077
      3 N          63.3493   94.1489   -0.4382 N.am    1  UNL1       -0.2681
      4 N          63.4168   92.5551    1.6125 N.am    1  UNL1       -0.2637
      5 C          64.1813   91.6375    2.5199 C.3     1  UNL1        0.0950
      6 C          63.4843   90.9614    3.6632 C.3     1  UNL1        0.0219
      7 C          62.0228   91.2030    3.8991 C.3     1  UNL1        0.0075
      8 C          61.2583   92.1207    2.9917 C.3     1  UNL1        0.0379
      9 C          61.9553   92.7967    1.8484 C.3     1  UNL1        0.0989
     10 H          62.3900   94.3075   -0.2834 H       1  UNL1        0.1564
     11 C          64.0463   94.8250   -1.5815 C.ar    1  UNL1        0.0516
     12 C          63.9001   94.2857   -2.9735 C.ar    1  UNL1        0.0156
     13 C          64.5971   94.9618   -4.1168 C.ar    1  UNL1        0.0127
     14 C          65.4402   96.1772   -3.8680 C.ar    1  UNL1        0.0578
     15 CL         66.1372   96.8534   -5.0114 Cl      1  UNL1       -0.0822
     16 C          65.5863   96.7166   -2.4760 C.ar    1  UNL1        0.0127
     17 C          64.8893   96.0405   -1.3328 C.ar    1  UNL1        0.0156
     18 C          60.1637   91.7143    3.9334 C.ar    1  UNL1       -0.0212
     19 C          60.4274   90.6813    4.9886 C.ar    1  UNL1       -0.0042
     20 C          59.3328   90.2749    5.9304 C.ar    1  UNL1       -0.0003
     21 C          57.9747   90.9015    5.8168 C.ar    1  UNL1       -0.0000
     22 C          57.7111   91.9345    4.7616 C.ar    1  UNL1       -0.0003
     23 C          58.8056   92.3409    3.8199 C.ar    1  UNL1       -0.0042
     24 C          60.1136   92.8972    2.4113 C.3     1  UNL1        0.0185
     25 C          60.1618   93.3486    0.9817 C.3     1  UNL1        0.1214
     26 C          58.9824   93.1214    0.0832 C.2     1  UNL1        0.3387
     27 N          58.0190   94.1698   -0.3890 N.2     1  UNL1        0.0551
     28 N          57.0004   93.5024   -1.2648 N.pl3   1  UNL1       -0.0731
     29 N          57.3342   92.0416   -1.3339 N.3     1  UNL1       -0.0526
     30 N          58.5591   91.8063   -0.5008 N.pl3   1  UNL1       -0.1384
     31 H          56.2453   93.9454   -1.7153 H       1  UNL1        0.2196
     32 H          57.5166   91.7736   -2.3010 H       1  UNL1        0.1969
     33 H          59.0067   90.9405   -0.3616 H       1  UNL1        0.3193
@<TRIPOS>BOND
     1     1     2    2
     2     2     3   am
     3     3    11    1
     4    11    12   ar
     5    12    13   ar
     6    13    14   ar
     7    14    15    1
     8    14    16   ar
     9    16    17   ar
    10     2     4   am
    11     4     5    1
    12     5     6    1
    13     6     7    1
    14     7     8    1
    15     8    24    1
    16    24    25    1
    17    25    26    1
    18    26    27    2
    19    27    28    1
    20    28    29    1
    21    29    30    1
    22     8    18    1
    23    18    19   ar
    24    19    20   ar
    25    20    21   ar
    26    21    22   ar
    27    22    23   ar
    28     8     9    1
    29    17    11   ar
    30     9     4    1
    31    30    26    1
    32    23    18   ar
    33     3    10    1
    34    28    31    1
    35    29    32    1
    36    30    33    1
