@<TRIPOS>MOLECULE
*****
 43 48 0 0 0
SMALL
GASTEIGER

@<TRIPOS>ATOM
      1 C          61.5135   87.6334   10.0940 C.3     1  UNL1        0.0069
      2 C          62.2148   88.1346   11.3216 C.3     1  UNL1        0.0738
      3 C          61.6029   89.2177   10.4834 C.3     1  UNL1        0.0136
      4 C          61.7259   90.6520   10.9049 C.3     1  UNL1        0.0261
      5 C          62.4607   91.0032   12.1645 C.2     1  UNL1       -0.0278
      6 C          63.0725   89.9201   13.0027 C.2     1  UNL1        0.0066
      7 C          62.9496   88.4858   12.5812 C.3     1  UNL1        0.2048
      8 C          63.4451   87.2120   13.1992 C.2     1  UNL1        0.3456
      9 O          64.2312   87.0969   14.4715 O.2     1  UNL1       -0.2471
     10 O          63.0165   86.0736   12.3215 O.3     1  UNL1       -0.4503
     11 C          62.2561   86.6437   11.1611 C.3     1  UNL1        0.1746
     12 C          61.5209   86.2764    9.8983 C.3     1  UNL1        0.0815
     13 C          60.8606   87.2458    8.9633 C.3     1  UNL1        0.1804
     14 O          60.8196   85.7752    8.6707 O.3     1  UNL1       -0.3763
     15 C          60.1593   86.7447    7.7357 C.2     1  UNL1        0.3415
     16 O          60.1183   85.2741    7.4431 O.2     1  UNL1       -0.2475
     17 O          59.4990   87.7141    6.8007 O.3     1  UNL1       -0.4460
     18 C          59.5400   89.1847    7.0932 C.3     1  UNL1        0.1944
     19 C          60.2413   89.6860    8.3208 C.3     1  UNL1        0.0512
     20 C          60.9016   88.7165    9.2558 C.3     1  UNL1        0.0369
     21 C          60.9426   90.1872    9.5484 C.3     1  UNL1        0.0030
     22 H          61.2900   85.2934    9.3689 H       1  UNL1        0.2109
     23 C          58.8797   90.1541    6.1582 C.ar    1  UNL1        0.0580
     24 C          59.5806   91.1392    5.2702 C.ar    1  UNL1        0.0430
     25 C          58.5367   91.9026    4.5102 C.ar    1  UNL1        0.1795
     26 O          57.1907   91.3893    4.9285 O.2     1  UNL1       -0.4475
     27 C          57.4027   90.3087    5.9470 C.ar    1  UNL1        0.1789
     28 O          63.7099   88.6831   13.8591 O.3     1  UNL1       -0.3183
     29 C          64.4130   89.9821   14.1205 C.3     1  UNL1        0.2663
     30 O          65.3370   90.5559   13.0875 O.3     1  UNL1       -0.3260
     31 C          66.0401   91.8549   13.3490 C.3     1  UNL1        0.1761
     32 C          65.8192   92.5800   14.6434 C.3     1  UNL1        0.1694
     33 O          66.5223   93.8790   14.9048 O.3     1  UNL1       -0.3794
     34 C          64.8953   92.0062   15.6762 C.3     1  UNL1        0.1715
     35 O          64.6744   92.7314   16.9706 O.3     1  UNL1       -0.3794
     36 C          64.1921   90.7073   15.4149 C.3     1  UNL1        0.1964
     37 O          63.2682   90.1335   16.4478 O.3     1  UNL1       -0.3775
     38 H          67.0769   94.1057   14.1419 H       1  UNL1        0.2105
     39 H          64.0540   92.2284   17.5212 H       1  UNL1        0.2105
     40 H          62.8993   89.2973   16.1228 H       1  UNL1        0.2106
     41 C          66.9641   92.4287   12.3160 C.3     1  UNL1        0.1693
     42 O          66.8506   93.8732   11.9278 O.3     1  UNL1       -0.3794
     43 H          66.0001   94.0235   11.4864 H       1  UNL1        0.2105
@<TRIPOS>BOND
     1     2     1    1
     2     2     3    1
     3     3     4    1
     4     4     5    1
     5     5     6    2
     6     6     7    1
     7     7    28    1
     8    29    28    1
     9    29    30    1
    10    30    31    1
    11    31    41    1
    12    41    42    1
    13    31    32    1
    14    32    33    1
    15    32    34    1
    16    34    35    1
    17    34    36    1
    18    36    37    1
    19     7     8    1
    20     8     9    2
    21     8    10    1
    22    10    11    1
    23    11    12    1
    24    12    13    1
    25    13    14    1
    26    13    15    1
    27    15    16    2
    28    15    17    1
    29    17    18    1
    30    18    23    1
    31    23    24   ar
    32    24    25   ar
    33    25    26   ar
    34    26    27   ar
    35    18    19    1
    36    19    20    1
    37    20    21    1
    38     7     2    1
    39    36    29    1
    40    20    13    1
    41    11     2    1
    42    27    23   ar
    43    20     3    1
    44    42    43    1
    45    33    38    1
    46    35    39    1
    47    37    40    1
    48    14    22    1
@<TRIPOS>MOLECULE
*****
 43 48 0 0 0
SMALL
GASTEIGER

@<TRIPOS>ATOM
      1 C          62.8230   87.5866   11.6329 C.3     1  UNL1        0.0069
      2 C          63.2761   88.7745   12.4290 C.3     1  UNL1        0.0738
      3 C          63.4704   87.4616   13.1279 C.3     1  UNL1        0.0136
      4 C          64.0720   87.4249   14.5015 C.3     1  UNL1        0.0261
      5 C          64.4793   88.7012   15.1761 C.2     1  UNL1       -0.0278
      6 C          64.2850   90.0141   14.4772 C.2     1  UNL1        0.0066
      7 C          63.6834   90.0508   13.1037 C.3     1  UNL1        0.2048
      8 C          63.3722   91.1862   12.1742 C.2     1  UNL1        0.3456
      9 O          63.6176   92.6408   12.4461 O.2     1  UNL1       -0.2471
     10 O          62.7726   90.6116   10.9250 O.3     1  UNL1       -0.4503
     11 C          62.7132   89.1211   11.0825 C.3     1  UNL1        0.1746
     12 C          62.2995   87.8470   10.3929 C.3     1  UNL1        0.0815
     13 C          62.4318   86.4664   10.9643 C.3     1  UNL1        0.1804
     14 O          61.8464   86.6592    9.5968 O.3     1  UNL1       -0.3763
     15 C          61.9787   85.2786   10.1683 C.2     1  UNL1        0.3415
     16 O          61.3933   85.4712    8.8008 O.2     1  UNL1       -0.2475
     17 O          62.1111   83.8980   10.7397 O.3     1  UNL1       -0.4460
     18 C          62.6965   83.7053   12.1072 C.3     1  UNL1        0.1944
     19 C          63.1497   84.8932   12.9034 C.3     1  UNL1        0.0512
     20 C          63.0173   86.2737   12.3318 C.3     1  UNL1        0.0369
     21 C          63.6028   86.0810   13.6994 C.3     1  UNL1        0.0030
     22 H          61.8331   87.6048    9.3811 H       1  UNL1        0.2109
     23 C          62.8289   82.3247   12.6787 C.ar    1  UNL1        0.0580
     24 C          62.4265   81.0480   12.0017 C.ar    1  UNL1        0.0430
     25 C          62.7358   79.9127   12.9320 C.ar    1  UNL1        0.1795
     26 O          63.3293   80.4878   14.1839 O.2     1  UNL1       -0.4475
     27 C          63.3868   81.9785   14.0273 C.ar    1  UNL1        0.1789
     28 O          64.0405   91.4015   13.6496 O.3     1  UNL1       -0.3183
     29 C          65.4778   91.7579   13.8883 C.3     1  UNL1        0.2663
     30 O          66.5093   91.4554   12.8421 O.3     1  UNL1       -0.3260
     31 C          67.9467   91.8119   13.0809 C.3     1  UNL1        0.1761
     32 C          68.3525   92.4708   14.3658 C.3     1  UNL1        0.1694
     33 O          69.7899   92.8273   14.6045 O.3     1  UNL1       -0.3794
     34 C          67.3211   92.7733   15.4119 C.3     1  UNL1        0.1715
     35 O          67.7269   93.4323   16.6969 O.3     1  UNL1       -0.3794
     36 C          65.8837   92.4169   15.1733 C.3     1  UNL1        0.1964
     37 O          64.8523   92.7194   16.2194 O.3     1  UNL1       -0.3775
     38 H          70.3199   92.5657   13.8354 H       1  UNL1        0.2105
     39 H          66.9454   93.5553   17.2581 H       1  UNL1        0.2105
     40 H          63.9811   92.4272   15.9086 H       1  UNL1        0.2106
     41 C          68.9781   91.5093   12.0346 C.3     1  UNL1        0.1693
     42 O          68.9210   92.1991   10.7037 O.3     1  UNL1       -0.3794
     43 H          68.1220   91.9208   10.2293 H       1  UNL1        0.2105
@<TRIPOS>BOND
     1     2     1    1
     2     2     3    1
     3     3     4    1
     4     4     5    1
     5     5     6    2
     6     6     7    1
     7     7    28    1
     8    29    28    1
     9    29    30    1
    10    30    31    1
    11    31    41    1
    12    41    42    1
    13    31    32    1
    14    32    33    1
    15    32    34    1
    16    34    35    1
    17    34    36    1
    18    36    37    1
    19     7     8    1
    20     8     9    2
    21     8    10    1
    22    10    11    1
    23    11    12    1
    24    12    13    1
    25    13    14    1
    26    13    15    1
    27    15    16    2
    28    15    17    1
    29    17    18    1
    30    18    23    1
    31    23    24   ar
    32    24    25   ar
    33    25    26   ar
    34    26    27   ar
    35    18    19    1
    36    19    20    1
    37    20    21    1
    38     7     2    1
    39    36    29    1
    40    20    13    1
    41    11     2    1
    42    27    23   ar
    43    20     3    1
    44    42    43    1
    45    33    38    1
    46    35    39    1
    47    37    40    1
    48    14    22    1
@<TRIPOS>MOLECULE
*****
 43 48 0 0 0
SMALL
GASTEIGER

@<TRIPOS>ATOM
      1 C          63.5165   88.7680   12.5124 C.3     1  UNL1        0.0069
      2 C          64.1016   90.1487   12.5513 C.3     1  UNL1        0.0738
      3 C          63.3263   89.8496   11.3025 C.3     1  UNL1        0.0136
      4 C          63.1944   90.8935   10.2335 C.3     1  UNL1        0.0261
      5 C          63.8376   92.2366   10.4134 C.2     1  UNL1       -0.0278
      6 C          64.6129   92.5357   11.6622 C.2     1  UNL1        0.0066
      7 C          64.7448   91.4918   12.7312 C.3     1  UNL1        0.2048
      8 C          65.4417   91.4978   14.0595 C.2     1  UNL1        0.3456
      9 O          66.2153   92.6422   14.6440 O.2     1  UNL1       -0.2471
     10 O          65.2291   90.1584   14.7005 O.3     1  UNL1       -0.4503
     11 C          64.4009   89.3246   13.7685 C.3     1  UNL1        0.1746
     12 C          63.7600   87.9713   13.6013 C.3     1  UNL1        0.0815
     13 C          62.9582   87.5297   12.4129 C.3     1  UNL1        0.1804
     14 O          63.1750   86.5906   13.5623 O.3     1  UNL1       -0.3763
     15 C          62.3732   86.1491   12.3739 C.2     1  UNL1        0.3415
     16 O          62.5900   85.2099   13.5232 O.2     1  UNL1       -0.2475
     17 O          61.5714   85.7075   11.1856 O.3     1  UNL1       -0.4460
     18 C          61.3545   86.6466   10.0362 C.3     1  UNL1        0.1944
     19 C          61.9395   88.0274   10.0752 C.3     1  UNL1        0.0512
     20 C          62.7413   88.4688   11.2635 C.3     1  UNL1        0.0369
     21 C          62.5245   89.4080   10.1142 C.3     1  UNL1        0.0030
     22 H          63.7099   87.0296   14.2420 H       1  UNL1        0.2109
     23 C          60.5527   86.2051    8.8479 C.ar    1  UNL1        0.0580
     24 C          59.1810   86.6888    8.4807 C.ar    1  UNL1        0.0430
     25 C          58.7624   85.9850    7.2240 C.ar    1  UNL1        0.1795
     26 O          59.8752   85.0664    6.8145 O.2     1  UNL1       -0.4475
     27 C          60.9817   85.2024    7.8181 C.ar    1  UNL1        0.1789
     28 O          65.4393   92.7825   13.0500 O.3     1  UNL1       -0.3183
     29 C          66.0985   93.5695   11.9563 C.3     1  UNL1        0.2663
     30 O          65.4509   94.8185   11.4361 O.3     1  UNL1       -0.3260
     31 C          66.1102   95.6055   10.3424 C.3     1  UNL1        0.1761
     32 C          67.4169   95.1434    9.7689 C.3     1  UNL1        0.1694
     33 O          68.0761   95.9304    8.6752 O.3     1  UNL1       -0.3794
     34 C          68.0644   93.8944   10.2890 C.3     1  UNL1        0.1715
     35 O          69.3712   93.4324    9.7156 O.3     1  UNL1       -0.3794
     36 C          67.4053   93.1074   11.3827 C.3     1  UNL1        0.1964
     37 O          68.0528   91.8584   11.9029 O.3     1  UNL1       -0.3775
     38 H          67.5303   96.7023    8.4582 H       1  UNL1        0.2105
     39 H          69.6487   92.6161   10.1600 H       1  UNL1        0.2105
     40 H          67.5004   91.4748   12.6019 H       1  UNL1        0.2106
     41 C          65.4625   96.8545    9.8222 C.3     1  UNL1        0.1693
     42 O          64.3632   96.7619    8.8058 O.3     1  UNL1       -0.3794
     43 H          64.7187   96.4058    7.9765 H       1  UNL1        0.2105
@<TRIPOS>BOND
     1     2     1    1
     2     2     3    1
     3     3     4    1
     4     4     5    1
     5     5     6    2
     6     6     7    1
     7     7    28    1
     8    29    28    1
     9    29    30    1
    10    30    31    1
    11    31    41    1
    12    41    42    1
    13    31    32    1
    14    32    33    1
    15    32    34    1
    16    34    35    1
    17    34    36    1
    18    36    37    1
    19     7     8    1
    20     8     9    2
    21     8    10    1
    22    10    11    1
    23    11    12    1
    24    12    13    1
    25    13    14    1
    26    13    15    1
    27    15    16    2
    28    15    17    1
    29    17    18    1
    30    18    23    1
    31    23    24   ar
    32    24    25   ar
    33    25    26   ar
    34    26    27   ar
    35    18    19    1
    36    19    20    1
    37    20    21    1
    38     7     2    1
    39    36    29    1
    40    20    13    1
    41    11     2    1
    42    27    23   ar
    43    20     3    1
    44    42    43    1
    45    33    38    1
    46    35    39    1
    47    37    40    1
    48    14    22    1
@<TRIPOS>MOLECULE
*****
 43 48 0 0 0
SMALL
GASTEIGER

@<TRIPOS>ATOM
      1 C          63.9002   90.7166   11.6067 C.3     1  UNL1        0.0069
      2 C          63.1746   89.4071   11.7025 C.3     1  UNL1        0.0738
      3 C          64.1154   89.6681   12.8413 C.3     1  UNL1        0.0136
      4 C          64.2608   88.6580   13.9406 C.3     1  UNL1        0.0261
      5 C          63.4654   87.3869   13.9011 C.2     1  UNL1       -0.0278
      6 C          62.5246   87.1259   12.7623 C.2     1  UNL1        0.0066
      7 C          62.3792   88.1360   11.6630 C.3     1  UNL1        0.2048
      8 C          61.5371   88.1546   10.4219 C.2     1  UNL1        0.3456
      9 O          60.5868   87.0794    9.9851 O.2     1  UNL1       -0.2471
     10 O          61.8120   89.4372    9.6943 O.3     1  UNL1       -0.4503
     11 C          62.8241   90.2114   10.4857 C.3     1  UNL1        0.1746
     12 C          63.6167   91.4924   10.5124 C.3     1  UNL1        0.0815
     13 C          64.5916   91.8897   11.5810 C.3     1  UNL1        0.1804
     14 O          64.3422   92.8018   10.4166 O.3     1  UNL1       -0.3763
     15 C          65.3171   93.1990   11.4852 C.2     1  UNL1        0.3415
     16 O          65.0677   94.1112   10.3209 O.2     1  UNL1       -0.2475
     17 O          66.2919   93.5963   12.5538 O.3     1  UNL1       -0.4460
     18 C          66.5413   92.6842   13.7182 C.3     1  UNL1        0.1944
     19 C          65.8158   91.3747   13.8141 C.3     1  UNL1        0.0512
     20 C          64.8409   90.9776   12.7454 C.3     1  UNL1        0.0369
     21 C          65.0903   90.0654   13.9099 C.3     1  UNL1        0.0030
     22 H          63.6899   92.3977    9.8233 H       1  UNL1        0.2109
     23 C          67.5161   93.0814   14.7868 C.ar    1  UNL1        0.0580
     24 C          68.3520   92.1462   15.6095 C.ar    1  UNL1        0.0430
     25 C          69.1788   92.9703   16.5515 C.ar    1  UNL1        0.1795
     26 O          68.8538   94.4148   16.3110 O.2     1  UNL1       -0.4475
     27 C          67.8263   94.4835   15.2204 C.ar    1  UNL1        0.1789
     28 O          61.5226   86.9171   11.4886 O.3     1  UNL1       -0.3183
     29 C          62.0997   85.5540   11.7315 C.3     1  UNL1        0.2663
     30 O          61.9211   84.8906   13.0649 O.3     1  UNL1       -0.3260
     31 C          62.4982   83.5274   13.3077 C.3     1  UNL1        0.1761
     32 C          63.2537   82.8277   12.2171 C.3     1  UNL1        0.1694
     33 O          63.8307   81.4646   12.4599 O.3     1  UNL1       -0.3794
     34 C          63.4322   83.4910   10.8837 C.3     1  UNL1        0.1715
     35 O          64.1877   82.7913    9.7930 O.3     1  UNL1       -0.3794
     36 C          62.8552   84.8542   10.6408 C.3     1  UNL1        0.1964
     37 O          63.0337   85.5175    9.3074 O.3     1  UNL1       -0.3775
     38 H          63.6263   81.1836   13.3655 H       1  UNL1        0.2105
     39 H          64.2103   83.3538    9.0031 H       1  UNL1        0.2105
     40 H          62.6031   86.3866    9.3184 H       1  UNL1        0.2106
     41 C          62.3196   82.8642   14.6412 C.3     1  UNL1        0.1693
     42 O          62.6820   83.5980   15.8983 O.3     1  UNL1       -0.3794
     43 H          63.6399   83.7498   15.9194 H       1  UNL1        0.2105
@<TRIPOS>BOND
     1     2     1    1
     2     2     3    1
     3     3     4    1
     4     4     5    1
     5     5     6    2
     6     6     7    1
     7     7    28    1
     8    29    28    1
     9    29    30    1
    10    30    31    1
    11    31    41    1
    12    41    42    1
    13    31    32    1
    14    32    33    1
    15    32    34    1
    16    34    35    1
    17    34    36    1
    18    36    37    1
    19     7     8    1
    20     8     9    2
    21     8    10    1
    22    10    11    1
    23    11    12    1
    24    12    13    1
    25    13    14    1
    26    13    15    1
    27    15    16    2
    28    15    17    1
    29    17    18    1
    30    18    23    1
    31    23    24   ar
    32    24    25   ar
    33    25    26   ar
    34    26    27   ar
    35    18    19    1
    36    19    20    1
    37    20    21    1
    38     7     2    1
    39    36    29    1
    40    20    13    1
    41    11     2    1
    42    27    23   ar
    43    20     3    1
    44    42    43    1
    45    33    38    1
    46    35    39    1
    47    37    40    1
    48    14    22    1
@<TRIPOS>MOLECULE
*****
 43 48 0 0 0
SMALL
GASTEIGER

@<TRIPOS>ATOM
      1 C          63.7013   86.0377   13.8807 C.3     1  UNL1        0.0069
      2 C          63.4559   87.4182   13.3474 C.3     1  UNL1        0.0738
      3 C          63.1421   86.3226   12.3720 C.3     1  UNL1        0.0136
      4 C          62.6315   86.6610   11.0028 C.3     1  UNL1        0.0261
      5 C          62.4348   88.0949   10.6089 C.2     1  UNL1       -0.0278
      6 C          62.7487   89.1904   11.5843 C.2     1  UNL1        0.0066
      7 C          63.2593   88.8521   12.9535 C.3     1  UNL1        0.2048
      8 C          63.6512   89.7109   14.1192 C.2     1  UNL1        0.3456
      9 O          63.6112   91.2097   14.1628 O.2     1  UNL1       -0.2471
     10 O          64.0901   88.8077   15.2335 O.3     1  UNL1       -0.4503
     11 C          63.9694   87.3907   14.7565 C.3     1  UNL1        0.1746
     12 C          64.1718   85.9548   15.1657 C.3     1  UNL1        0.0815
     13 C          63.9023   84.7583   14.3021 C.3     1  UNL1        0.1804
     14 O          64.4171   84.5745   15.6990 O.3     1  UNL1       -0.3763
     15 C          64.1476   83.3780   14.8354 C.2     1  UNL1        0.3415
     16 O          64.6624   83.1940   16.2321 O.2     1  UNL1       -0.2475
     17 O          63.8781   82.1814   13.9718 O.3     1  UNL1       -0.4460
     18 C          63.3633   82.3653   12.5750 C.3     1  UNL1        0.1944
     19 C          63.1179   83.7457   12.0417 C.3     1  UNL1        0.0512
     20 C          63.3874   84.9422   12.9053 C.3     1  UNL1        0.0369
     21 C          62.8726   85.1261   11.5084 C.3     1  UNL1        0.0030
     22 H          64.5366   85.4419   16.1163 H       1  UNL1        0.2109
     23 C          63.0938   81.1688   11.7114 C.ar    1  UNL1        0.0580
     24 C          63.1984   81.1194   10.2158 C.ar    1  UNL1        0.0430
     25 C          62.8416   79.7317    9.7718 C.ar    1  UNL1        0.1795
     26 O          62.5166   78.9236   10.9930 O.2     1  UNL1       -0.4475
     27 C          62.6725   79.8117   12.1917 C.ar    1  UNL1        0.1789
     28 O          63.1135   90.3238   12.7033 O.3     1  UNL1       -0.3183
     29 C          64.3106   91.1412   12.3178 C.3     1  UNL1        0.2663
     30 O          65.5226   91.1592   13.2013 O.3     1  UNL1       -0.3260
     31 C          66.7198   91.9767   12.8158 C.3     1  UNL1        0.1761
     32 C          66.7049   92.7761   11.5467 C.3     1  UNL1        0.1694
     33 O          67.9021   93.5936   11.1611 O.3     1  UNL1       -0.3794
     34 C          65.4930   92.7582   10.6631 C.3     1  UNL1        0.1715
     35 O          65.4781   93.5576    9.3940 O.3     1  UNL1       -0.3794
     36 C          64.2958   91.9408   11.0486 C.3     1  UNL1        0.1964
     37 O          63.0838   91.9228   10.1651 O.3     1  UNL1       -0.3775
     38 H          68.5920   93.4947   11.8358 H       1  UNL1        0.2105
     39 H          64.6269   93.4359    8.9452 H       1  UNL1        0.2105
     40 H          62.4064   91.3497   10.5570 H       1  UNL1        0.2106
     41 C          67.9318   91.9946   13.6994 C.3     1  UNL1        0.1693
     42 O          69.2845   91.6977   13.1231 O.3     1  UNL1       -0.3794
     43 H          69.3139   90.7748   12.8259 H       1  UNL1        0.2105
@<TRIPOS>BOND
     1     2     1    1
     2     2     3    1
     3     3     4    1
     4     4     5    1
     5     5     6    2
     6     6     7    1
     7     7    28    1
     8    29    28    1
     9    29    30    1
    10    30    31    1
    11    31    41    1
    12    41    42    1
    13    31    32    1
    14    32    33    1
    15    32    34    1
    16    34    35    1
    17    34    36    1
    18    36    37    1
    19     7     8    1
    20     8     9    2
    21     8    10    1
    22    10    11    1
    23    11    12    1
    24    12    13    1
    25    13    14    1
    26    13    15    1
    27    15    16    2
    28    15    17    1
    29    17    18    1
    30    18    23    1
    31    23    24   ar
    32    24    25   ar
    33    25    26   ar
    34    26    27   ar
    35    18    19    1
    36    19    20    1
    37    20    21    1
    38     7     2    1
    39    36    29    1
    40    20    13    1
    41    11     2    1
    42    27    23   ar
    43    20     3    1
    44    42    43    1
    45    33    38    1
    46    35    39    1
    47    37    40    1
    48    14    22    1
@<TRIPOS>MOLECULE
*****
 43 48 0 0 0
SMALL
GASTEIGER

@<TRIPOS>ATOM
      1 C          62.7050   87.7490   11.5094 C.3     1  UNL1        0.0069
      2 C          63.2967   88.9264   12.2263 C.3     1  UNL1        0.0738
      3 C          63.4874   87.6198   12.9380 C.3     1  UNL1        0.0136
      4 C          64.2172   87.5789   14.2479 C.3     1  UNL1        0.0261
      5 C          64.7563   88.8444   14.8459 C.2     1  UNL1       -0.0278
      6 C          64.5656   90.1509   14.1342 C.2     1  UNL1        0.0066
      7 C          63.8358   90.1919   12.8243 C.3     1  UNL1        0.2048
      8 C          63.4970   91.3229   11.8991 C.2     1  UNL1        0.3456
      9 O          63.8455   92.7669   12.1072 O.2     1  UNL1       -0.2471
     10 O          62.7485   90.7563   10.7291 O.3     1  UNL1       -0.4503
     11 C          62.6247   89.2752   10.9313 C.3     1  UNL1        0.1746
     12 C          62.0779   88.0118   10.3189 C.3     1  UNL1        0.0815
     13 C          62.1909   86.6385   10.9116 C.3     1  UNL1        0.1804
     14 O          61.4862   86.8345    9.6021 O.3     1  UNL1       -0.3763
     15 C          61.5992   85.4612   10.1948 C.2     1  UNL1        0.3415
     16 O          60.8945   85.6571    8.8853 O.2     1  UNL1       -0.2475
     17 O          61.7123   84.0879   10.7876 O.3     1  UNL1       -0.4460
     18 C          62.4170   83.8919   12.0971 C.3     1  UNL1        0.1944
     19 C          63.0088   85.0692   12.8140 C.3     1  UNL1        0.0512
     20 C          62.8957   86.4425   12.2212 C.3     1  UNL1        0.0369
     21 C          63.6005   86.2465   13.5308 C.3     1  UNL1        0.0030
     22 H          61.5027   87.7746    9.3635 H       1  UNL1        0.2109
     23 C          62.5301   82.5186   12.6898 C.ar    1  UNL1        0.0580
     24 C          62.7250   81.2421   11.9264 C.ar    1  UNL1        0.0430
     25 C          62.7835   80.1153   12.9147 C.ar    1  UNL1        0.1795
     26 O          62.6248   80.6954   14.2889 O.2     1  UNL1       -0.4475
     27 C          62.4682   82.1807   14.1499 C.ar    1  UNL1        0.1789
     28 O          64.3164   91.5319   13.2971 O.3     1  UNL1       -0.3183
     29 C          65.7862   91.7914   13.4471 C.3     1  UNL1        0.2663
     30 O          66.3833   91.9550   14.8133 O.3     1  UNL1       -0.3260
     31 C          67.8532   92.2145   14.9633 C.3     1  UNL1        0.1761
     32 C          68.7257   92.3103   13.7470 C.3     1  UNL1        0.1694
     33 O          70.1955   92.5698   13.8970 O.3     1  UNL1       -0.3794
     34 C          68.1286   92.1467   12.3808 C.3     1  UNL1        0.1715
     35 O          69.0012   92.2426   11.1645 O.3     1  UNL1       -0.3794
     36 C          66.6589   91.8872   12.2307 C.3     1  UNL1        0.1964
     37 O          66.0617   91.7236   10.8646 O.3     1  UNL1       -0.3775
     38 H          70.4153   92.6496   14.8383 H       1  UNL1        0.2105
     39 H          68.4617   92.1143   10.3686 H       1  UNL1        0.2105
     40 H          65.1085   91.5633   10.9454 H       1  UNL1        0.2106
     41 C          68.4502   92.3781   16.3296 C.3     1  UNL1        0.1693
     42 O          69.3654   93.5319   16.6148 O.3     1  UNL1       -0.3794
     43 H          70.1775   93.4371   16.0930 H       1  UNL1        0.2105
@<TRIPOS>BOND
     1     2     1    1
     2     2     3    1
     3     3     4    1
     4     4     5    1
     5     5     6    2
     6     6     7    1
     7     7    28    1
     8    29    28    1
     9    29    30    1
    10    30    31    1
    11    31    41    1
    12    41    42    1
    13    31    32    1
    14    32    33    1
    15    32    34    1
    16    34    35    1
    17    34    36    1
    18    36    37    1
    19     7     8    1
    20     8     9    2
    21     8    10    1
    22    10    11    1
    23    11    12    1
    24    12    13    1
    25    13    14    1
    26    13    15    1
    27    15    16    2
    28    15    17    1
    29    17    18    1
    30    18    23    1
    31    23    24   ar
    32    24    25   ar
    33    25    26   ar
    34    26    27   ar
    35    18    19    1
    36    19    20    1
    37    20    21    1
    38     7     2    1
    39    36    29    1
    40    20    13    1
    41    11     2    1
    42    27    23   ar
    43    20     3    1
    44    42    43    1
    45    33    38    1
    46    35    39    1
    47    37    40    1
    48    14    22    1
