@<TRIPOS>MOLECULE
*****
 28 31 0 0 0
SMALL
GASTEIGER

@<TRIPOS>ATOM
      1 C          64.1234   83.7719   15.3384 C.3     1  UNL1        0.0324
      2 C          63.6535   83.8355   13.9154 C.ar    1  UNL1       -0.0020
      3 C          63.4259   82.5697   13.1434 C.ar    1  UNL1        0.0960
      4 C          62.9559   82.6332   11.7204 C.ar    1  UNL1        0.1347
      5 N          62.7283   81.3674   10.9484 N.pl3   1  UNL1       -0.3421
      6 N          62.7136   83.9627   11.0692 N.ar    1  UNL1       -0.2302
      7 C          62.9412   85.2285   11.8412 C.ar    1  UNL1        0.0864
      8 C          62.7879   86.6731   11.4677 C.ar    1  UNL1        0.0199
      9 C          63.1631   87.5024   12.6600 C.ar    1  UNL1        0.0784
     10 S          63.5483   86.5703   13.7702 S.2     1  UNL1       -0.0712
     11 C          63.4111   85.1649   13.2642 C.ar    1  UNL1        0.0448
     12 N          63.1055   88.9992   12.5806 N.am    1  UNL1       -0.2791
     13 C          62.6727   89.6667   11.3089 C.2     1  UNL1        0.2271
     14 O          62.6151   91.1635   11.2295 O.2     1  UNL1       -0.2747
     15 C          62.2975   88.8374   10.1167 C.3     1  UNL1        0.0942
     16 C          62.3551   87.3406   10.1960 C.3     1  UNL1        0.0577
     17 H          62.8873   80.4948   11.3758 H       1  UNL1        0.1437
     18 H          62.4198   81.4091   10.0144 H       1  UNL1        0.1437
     19 H          63.3518   89.5435   13.3631 H       1  UNL1        0.1553
     20 C          61.9799   86.5113    9.0038 C.ar    1  UNL1       -0.0073
     21 C          63.0117   85.6557    8.3306 C.ar    1  UNL1       -0.0031
     22 C          62.6365   84.8264    7.1384 C.ar    1  UNL1       -0.0003
     23 C          61.2295   84.8527    6.6192 C.ar    1  UNL1        0.0008
     24 C          60.1977   85.7084    7.2924 C.ar    1  UNL1        0.0111
     25 C          60.5729   86.5377    8.4847 C.ar    1  UNL1        0.0540
     26 CL         59.5409   87.3933    9.1578 Cl      1  UNL1       -0.0826
     27 C          63.6682   81.2402   13.7946 C.1     1  UNL1        0.1029
     28 N          63.9106   79.9108   14.4457 N.1     1  UNL1       -0.1907
@<TRIPOS>BOND
     1     1     2    1
     2     2     3   ar
     3     3    27    1
     4    27    28    3
     5     3     4   ar
     6     4     5    1
     7     4     6   ar
     8     6     7   ar
     9     7     8   ar
    10     8     9   ar
    11     9    10   ar
    12    10    11   ar
    13     9    12    1
    14    12    13   am
    15    13    14    2
    16    13    15    1
    17    15    16    1
    18    16    20    1
    19    20    21   ar
    20    21    22   ar
    21    22    23   ar
    22    23    24   ar
    23    24    25   ar
    24    25    26    1
    25    11     2   ar
    26    25    20   ar
    27    11     7   ar
    28    16     8    1
    29     5    17    1
    30     5    18    1
    31    12    19    1
@<TRIPOS>MOLECULE
*****
 28 31 0 0 0
SMALL
GASTEIGER

@<TRIPOS>ATOM
      1 C          60.7477   85.9740    8.5549 C.3     1  UNL1        0.0324
      2 C          61.2386   86.8709    9.6524 C.ar    1  UNL1       -0.0020
      3 C          60.9991   88.3497    9.5760 C.ar    1  UNL1        0.0960
      4 C          61.4901   89.2466   10.6735 C.ar    1  UNL1        0.1347
      5 N          61.2506   90.7255   10.5971 N.pl3   1  UNL1       -0.3421
      6 N          62.2205   88.6647   11.8474 N.ar    1  UNL1       -0.2302
      7 C          62.4600   87.1860   11.9238 C.ar    1  UNL1        0.0864
      8 C          63.1442   86.3317   12.9494 C.ar    1  UNL1        0.0199
      9 C          63.0762   84.9067   12.4858 C.ar    1  UNL1        0.0784
     10 S          62.3499   84.8804   11.1737 S.2     1  UNL1       -0.0712
     11 C          61.9690   86.2890   10.8263 C.ar    1  UNL1        0.0448
     12 N          63.6844   83.8173   13.3184 N.am    1  UNL1       -0.2791
     13 C          64.3606   84.1528   14.6146 C.2     1  UNL1        0.2271
     14 O          64.9688   83.0634   15.4472 O.2     1  UNL1       -0.2747
     15 C          64.4286   85.5778   15.0782 C.3     1  UNL1        0.0942
     16 C          63.8204   86.6672   14.2456 C.3     1  UNL1        0.0577
     17 H          60.7712   91.1074    9.8267 H       1  UNL1        0.1437
     18 H          61.5728   91.3141   11.3174 H       1  UNL1        0.1437
     19 H          63.6397   82.8821   13.0141 H       1  UNL1        0.1553
     20 C          63.8885   88.0921   14.7092 C.ar    1  UNL1       -0.0073
     21 C          64.4851   89.1425   13.8199 C.ar    1  UNL1       -0.0031
     22 C          64.5531   90.5674   14.2835 C.ar    1  UNL1       -0.0003
     23 C          64.0246   90.9420   15.6364 C.ar    1  UNL1        0.0008
     24 C          63.4279   89.8917   16.5256 C.ar    1  UNL1        0.0111
     25 C          63.3599   88.4668   16.0620 C.ar    1  UNL1        0.0540
     26 CL         62.7632   87.4164   16.9514 Cl      1  UNL1       -0.0826
     27 C          60.2687   88.9315    8.4021 C.1     1  UNL1        0.1029
     28 N          59.5383   89.5134    7.2282 N.1     1  UNL1       -0.1907
@<TRIPOS>BOND
     1     1     2    1
     2     2     3   ar
     3     3    27    1
     4    27    28    3
     5     3     4   ar
     6     4     5    1
     7     4     6   ar
     8     6     7   ar
     9     7     8   ar
    10     8     9   ar
    11     9    10   ar
    12    10    11   ar
    13     9    12    1
    14    12    13   am
    15    13    14    2
    16    13    15    1
    17    15    16    1
    18    16    20    1
    19    20    21   ar
    20    21    22   ar
    21    22    23   ar
    22    23    24   ar
    23    24    25   ar
    24    25    26    1
    25    11     2   ar
    26    25    20   ar
    27    11     7   ar
    28    16     8    1
    29     5    17    1
    30     5    18    1
    31    12    19    1
@<TRIPOS>MOLECULE
*****
 28 31 0 0 0
SMALL
GASTEIGER

@<TRIPOS>ATOM
      1 C          64.7457   83.5920   15.5616 C.3     1  UNL1        0.0324
      2 C          64.0130   83.9063   14.2910 C.ar    1  UNL1       -0.0020
      3 C          63.4442   82.7955   13.4589 C.ar    1  UNL1        0.0960
      4 C          62.7116   83.1098   12.1883 C.ar    1  UNL1        0.1347
      5 N          62.1427   81.9990   11.3560 N.pl3   1  UNL1       -0.3421
      6 N          62.5477   84.5349   11.7498 N.ar    1  UNL1       -0.2302
      7 C          63.1165   85.6458   12.5820 C.ar    1  UNL1        0.0864
      8 C          63.1125   87.1353   12.4055 C.ar    1  UNL1        0.0199
      9 C          63.8427   87.7417   13.5671 C.ar    1  UNL1        0.0784
     10 S          64.2980   86.6268   14.4614 S.2     1  UNL1       -0.0712
     11 C          63.8492   85.3314   13.8526 C.ar    1  UNL1        0.0448
     12 N          63.9986   89.2306   13.6604 N.am    1  UNL1       -0.2791
     13 C          63.4244   90.1132   12.5921 C.2     1  UNL1        0.2271
     14 O          63.5804   91.6022   12.6853 O.2     1  UNL1       -0.2747
     15 C          62.6943   89.5068   11.4305 C.3     1  UNL1        0.0942
     16 C          62.5383   88.0179   11.3372 C.3     1  UNL1        0.0577
     17 H          62.2502   81.0636   11.6438 H       1  UNL1        0.1437
     18 H          61.6619   82.2053   10.5221 H       1  UNL1        0.1437
     19 H          64.4779   89.6285   14.4227 H       1  UNL1        0.1553
     20 C          61.8081   87.4116   10.1757 C.ar    1  UNL1       -0.0073
     21 C          62.5543   86.5888    9.1676 C.ar    1  UNL1       -0.0031
     22 C          61.8241   85.9825    8.0060 C.ar    1  UNL1       -0.0003
     23 C          60.3478   86.1989    7.8526 C.ar    1  UNL1        0.0008
     24 C          59.6017   87.0217    8.8606 C.ar    1  UNL1        0.0111
     25 C          60.3318   87.6280   10.0222 C.ar    1  UNL1        0.0540
     26 CL         59.5856   88.4508   11.0303 Cl      1  UNL1       -0.0826
     27 C          63.6081   81.3704   13.8973 C.1     1  UNL1        0.1029
     28 N          63.7719   79.9453   14.3357 N.1     1  UNL1       -0.1907
@<TRIPOS>BOND
     1     1     2    1
     2     2     3   ar
     3     3    27    1
     4    27    28    3
     5     3     4   ar
     6     4     5    1
     7     4     6   ar
     8     6     7   ar
     9     7     8   ar
    10     8     9   ar
    11     9    10   ar
    12    10    11   ar
    13     9    12    1
    14    12    13   am
    15    13    14    2
    16    13    15    1
    17    15    16    1
    18    16    20    1
    19    20    21   ar
    20    21    22   ar
    21    22    23   ar
    22    23    24   ar
    23    24    25   ar
    24    25    26    1
    25    11     2   ar
    26    25    20   ar
    27    11     7   ar
    28    16     8    1
    29     5    17    1
    30     5    18    1
    31    12    19    1
@<TRIPOS>MOLECULE
*****
 28 31 0 0 0
SMALL
GASTEIGER

@<TRIPOS>ATOM
      1 C          63.5271   87.8359   17.2448 C.3     1  UNL1        0.0324
      2 C          63.4291   87.5828   15.7695 C.ar    1  UNL1       -0.0020
      3 C          63.5611   88.7220   14.8027 C.ar    1  UNL1        0.0960
      4 C          63.4631   88.4689   13.3275 C.ar    1  UNL1        0.1347
      5 N          63.5951   89.6081   12.3606 N.pl3   1  UNL1       -0.3421
      6 N          63.2333   87.0765   12.8191 N.ar    1  UNL1       -0.2302
      7 C          63.1014   85.9372   13.7859 C.ar    1  UNL1        0.0864
      8 C          62.8725   84.4689   13.5817 C.ar    1  UNL1        0.0199
      9 C          62.8289   83.8146   14.9307 C.ar    1  UNL1        0.0784
     10 S          63.0309   84.8785   15.9686 S.2     1  UNL1       -0.0712
     11 C          63.1993   86.1904   15.2611 C.ar    1  UNL1        0.0448
     12 N          62.6110   82.3346   15.0397 N.am    1  UNL1       -0.2791
     13 C          62.4366   81.5089   13.7997 C.2     1  UNL1        0.2271
     14 O          62.2187   80.0287   13.9086 O.2     1  UNL1       -0.2747
     15 C          62.4802   82.1632   12.4506 C.3     1  UNL1        0.0942
     16 C          62.6981   83.6432   12.3416 C.3     1  UNL1        0.0577
     17 H          63.7459   90.5220   12.6943 H       1  UNL1        0.1437
     18 H          63.5308   89.4420   11.3924 H       1  UNL1        0.1437
     19 H          62.5824   81.9051   15.9252 H       1  UNL1        0.1553
     20 C          62.7417   84.2976   10.9926 C.ar    1  UNL1       -0.0073
     21 C          61.8028   85.4232   10.6743 C.ar    1  UNL1       -0.0031
     22 C          61.8463   86.0776    9.3253 C.ar    1  UNL1       -0.0003
     23 C          62.8288   85.6063    8.2945 C.ar    1  UNL1        0.0008
     24 C          63.7677   84.4806    8.6127 C.ar    1  UNL1        0.0111
     25 C          63.7241   83.8263    9.9618 C.ar    1  UNL1        0.0540
     26 CL         64.6631   82.7006   10.2800 Cl      1  UNL1       -0.0826
     27 C          63.7909   90.1144   15.3112 C.1     1  UNL1        0.1029
     28 N          64.0207   91.5068   15.8196 N.1     1  UNL1       -0.1907
@<TRIPOS>BOND
     1     1     2    1
     2     2     3   ar
     3     3    27    1
     4    27    28    3
     5     3     4   ar
     6     4     5    1
     7     4     6   ar
     8     6     7   ar
     9     7     8   ar
    10     8     9   ar
    11     9    10   ar
    12    10    11   ar
    13     9    12    1
    14    12    13   am
    15    13    14    2
    16    13    15    1
    17    15    16    1
    18    16    20    1
    19    20    21   ar
    20    21    22   ar
    21    22    23   ar
    22    23    24   ar
    23    24    25   ar
    24    25    26    1
    25    11     2   ar
    26    25    20   ar
    27    11     7   ar
    28    16     8    1
    29     5    17    1
    30     5    18    1
    31    12    19    1
@<TRIPOS>MOLECULE
*****
 28 31 0 0 0
SMALL
GASTEIGER

@<TRIPOS>ATOM
      1 C          61.2090   89.5495    8.5410 C.3     1  UNL1        0.0324
      2 C          61.6377   88.7213    9.7159 C.ar    1  UNL1       -0.0020
      3 C          61.2838   87.2649    9.7759 C.ar    1  UNL1        0.0960
      4 C          61.7125   86.4368   10.9508 C.ar    1  UNL1        0.1347
      5 N          61.3585   84.9803   11.0109 N.pl3   1  UNL1       -0.3421
      6 N          62.4952   87.0649   12.0656 N.ar    1  UNL1       -0.2302
      7 C          62.8492   88.5213   12.0055 C.ar    1  UNL1        0.0864
      8 C          63.6058   89.4100   12.9478 C.ar    1  UNL1        0.0199
      9 C          63.6447   90.7874   12.3552 C.ar    1  UNL1        0.0784
     10 S          62.9121   90.7500   11.0468 S.2     1  UNL1       -0.0712
     11 C          62.4205   89.3495   10.8307 C.ar    1  UNL1        0.0448
     12 N          64.3422   91.8978   13.0836 N.am    1  UNL1       -0.2791
     13 C          65.0008   91.6307   14.4045 C.2     1  UNL1        0.2271
     14 O          65.6983   92.7411   15.1330 O.2     1  UNL1       -0.2747
     15 C          64.9619   90.2532   14.9971 C.3     1  UNL1        0.0942
     16 C          64.2644   89.1429   14.2687 C.3     1  UNL1        0.0577
     17 H          60.8448   84.5680   10.2792 H       1  UNL1        0.1437
     18 H          61.6399   84.4367   11.7820 H       1  UNL1        0.1437
     19 H          64.3678   92.8019   12.6947 H       1  UNL1        0.1553
     20 C          64.2255   87.7654   14.8612 C.ar    1  UNL1       -0.0073
     21 C          64.9006   86.6264   14.1563 C.ar    1  UNL1       -0.0031
     22 C          64.8617   85.2489   14.7488 C.ar    1  UNL1       -0.0003
     23 C          64.1477   85.0105   16.0463 C.ar    1  UNL1        0.0008
     24 C          63.4727   86.1495   16.7512 C.ar    1  UNL1        0.0111
     25 C          63.5116   87.5270   16.1586 C.ar    1  UNL1        0.0540
     26 CL         62.8365   88.6660   16.8636 Cl      1  UNL1       -0.0826
     27 C          60.5010   86.6368    8.6611 C.1     1  UNL1        0.1029
     28 N          59.7183   86.0086    7.5463 N.1     1  UNL1       -0.1907
@<TRIPOS>BOND
     1     1     2    1
     2     2     3   ar
     3     3    27    1
     4    27    28    3
     5     3     4   ar
     6     4     5    1
     7     4     6   ar
     8     6     7   ar
     9     7     8   ar
    10     8     9   ar
    11     9    10   ar
    12    10    11   ar
    13     9    12    1
    14    12    13   am
    15    13    14    2
    16    13    15    1
    17    15    16    1
    18    16    20    1
    19    20    21   ar
    20    21    22   ar
    21    22    23   ar
    22    23    24   ar
    23    24    25   ar
    24    25    26    1
    25    11     2   ar
    26    25    20   ar
    27    11     7   ar
    28    16     8    1
    29     5    17    1
    30     5    18    1
    31    12    19    1
@<TRIPOS>MOLECULE
*****
 28 31 0 0 0
SMALL
GASTEIGER

@<TRIPOS>ATOM
      1 C          63.2736   91.8892   11.9887 C.3     1  UNL1        0.0324
      2 C          63.3831   90.4371   12.3487 C.ar    1  UNL1       -0.0020
      3 C          64.1025   90.0267   13.5992 C.ar    1  UNL1        0.0960
      4 C          64.2121   88.5747   13.9592 C.ar    1  UNL1        0.1347
      5 N          64.9315   88.1642   15.2099 N.pl3   1  UNL1       -0.3421
      6 N          63.6022   87.5331   13.0687 N.ar    1  UNL1       -0.2302
      7 C          62.8828   87.9435   11.8181 C.ar    1  UNL1        0.0864
      8 C          62.1867   87.1482   10.7536 C.ar    1  UNL1        0.0199
      9 C          61.6470   88.1087    9.7358 C.ar    1  UNL1        0.0784
     10 S          62.0095   89.4976   10.1711 S.2     1  UNL1       -0.0712
     11 C          62.7732   89.3955   11.4581 C.ar    1  UNL1        0.0448
     12 N          60.8952   87.5946    8.5440 N.am    1  UNL1       -0.2791
     13 C          60.6831   86.1199    8.3701 C.2     1  UNL1        0.2271
     14 O          59.9312   85.6056    7.1783 O.2     1  UNL1       -0.2747
     15 C          61.2228   85.1594    9.3880 C.3     1  UNL1        0.0942
     16 C          61.9746   85.6735   10.5798 C.3     1  UNL1        0.0577
     17 H          65.3318   88.8478   15.7944 H       1  UNL1        0.1437
     18 H          65.0034   87.2112   15.4462 H       1  UNL1        0.1437
     19 H          60.5409   88.2250    7.8759 H       1  UNL1        0.1553
     20 C          62.5143   84.7130   11.5976 C.ar    1  UNL1       -0.0073
     21 C          62.0701   84.8071   13.0272 C.ar    1  UNL1       -0.0031
     22 C          62.6098   83.8465   14.0451 C.ar    1  UNL1       -0.0003
     23 C          63.5938   82.7920   13.6334 C.ar    1  UNL1        0.0008
     24 C          64.0381   82.6979   12.2039 C.ar    1  UNL1        0.0111
     25 C          63.4984   83.6584   11.1860 C.ar    1  UNL1        0.0540
     26 CL         63.9427   83.5643    9.7563 Cl      1  UNL1       -0.0826
     27 C          64.7124   91.0683   14.4898 C.1     1  UNL1        0.1029
     28 N          65.3223   92.1099   15.3804 N.1     1  UNL1       -0.1907
@<TRIPOS>BOND
     1     1     2    1
     2     2     3   ar
     3     3    27    1
     4    27    28    3
     5     3     4   ar
     6     4     5    1
     7     4     6   ar
     8     6     7   ar
     9     7     8   ar
    10     8     9   ar
    11     9    10   ar
    12    10    11   ar
    13     9    12    1
    14    12    13   am
    15    13    14    2
    16    13    15    1
    17    15    16    1
    18    16    20    1
    19    20    21   ar
    20    21    22   ar
    21    22    23   ar
    22    23    24   ar
    23    24    25   ar
    24    25    26    1
    25    11     2   ar
    26    25    20   ar
    27    11     7   ar
    28    16     8    1
    29     5    17    1
    30     5    18    1
    31    12    19    1
@<TRIPOS>MOLECULE
*****
 28 31 0 0 0
SMALL
GASTEIGER

@<TRIPOS>ATOM
      1 C          62.4366   82.8461   11.9629 C.3     1  UNL1        0.0324
      2 C          62.8371   84.2285   12.3854 C.ar    1  UNL1       -0.0020
      3 C          63.7244   84.4203   13.5794 C.ar    1  UNL1        0.0960
      4 C          64.1249   85.8027   14.0019 C.ar    1  UNL1        0.1347
      5 N          65.0123   85.9946   15.1960 N.pl3   1  UNL1       -0.3421
      6 N          63.6381   86.9934   13.2303 N.ar    1  UNL1       -0.2302
      7 C          62.7507   86.8016   12.0362 C.ar    1  UNL1        0.0864
      8 C          62.1199   87.7773   11.0874 C.ar    1  UNL1        0.0199
      9 C          61.3295   86.9978   10.0786 C.ar    1  UNL1        0.0784
     10 S          61.4719   85.5404   10.4039 S.2     1  UNL1       -0.0712
     11 C          62.3502   85.4191   11.6138 C.ar    1  UNL1        0.0448
     12 N          60.5824   87.7158    8.9941 N.am    1  UNL1       -0.2791
     13 C          60.6255   89.2132    8.9185 C.2     1  UNL1        0.2271
     14 O          59.8783   89.9313    7.8339 O.2     1  UNL1       -0.2747
     15 C          61.4159   89.9927    9.9273 C.3     1  UNL1        0.0942
     16 C          62.1631   89.2747   11.0118 C.3     1  UNL1        0.0577
     17 H          65.3319   85.2131   15.7024 H       1  UNL1        0.1437
     18 H          65.2752   86.9019   15.4733 H       1  UNL1        0.1437
     19 H          60.0636   87.2042    8.3320 H       1  UNL1        0.1553
     20 C          62.9535   90.0541   12.0207 C.ar    1  UNL1       -0.0073
     21 C          62.8165   89.7449   13.4820 C.ar    1  UNL1       -0.0031
     22 C          63.6069   90.5243   14.4908 C.ar    1  UNL1       -0.0003
     23 C          64.5342   91.6130   14.0384 C.ar    1  UNL1        0.0008
     24 C          64.6711   91.9223   12.5770 C.ar    1  UNL1        0.0111
     25 C          63.8807   91.1428   11.5682 C.ar    1  UNL1        0.0540
     26 CL         64.0177   91.4522   10.1068 Cl      1  UNL1       -0.0826
     27 C          64.2113   83.2296   14.3510 C.1     1  UNL1        0.1029
     28 N          64.6982   82.0390   15.1226 N.1     1  UNL1       -0.1907
@<TRIPOS>BOND
     1     1     2    1
     2     2     3   ar
     3     3    27    1
     4    27    28    3
     5     3     4   ar
     6     4     5    1
     7     4     6   ar
     8     6     7   ar
     9     7     8   ar
    10     8     9   ar
    11     9    10   ar
    12    10    11   ar
    13     9    12    1
    14    12    13   am
    15    13    14    2
    16    13    15    1
    17    15    16    1
    18    16    20    1
    19    20    21   ar
    20    21    22   ar
    21    22    23   ar
    22    23    24   ar
    23    24    25   ar
    24    25    26    1
    25    11     2   ar
    26    25    20   ar
    27    11     7   ar
    28    16     8    1
    29     5    17    1
    30     5    18    1
    31    12    19    1
@<TRIPOS>MOLECULE
*****
 28 31 0 0 0
SMALL
GASTEIGER

@<TRIPOS>ATOM
      1 C          60.9021   90.0219   10.0870 C.3     1  UNL1        0.0324
      2 C          61.1894   88.5502   10.0489 C.ar    1  UNL1       -0.0020
      3 C          60.6546   87.7104    8.9270 C.ar    1  UNL1        0.0960
      4 C          60.9419   86.2387    8.8889 C.ar    1  UNL1        0.1347
      5 N          60.4070   85.3988    7.7669 N.pl3   1  UNL1       -0.3421
      6 N          61.7641   85.6067    9.9727 N.ar    1  UNL1       -0.2302
      7 C          62.2990   86.4465   11.0946 C.ar    1  UNL1        0.0864
      8 C          63.1330   86.1058   12.2939 C.ar    1  UNL1        0.0199
      9 C          63.3611   87.3670   13.0733 C.ar    1  UNL1        0.0784
     10 S          62.6681   88.4871   12.3556 S.2     1  UNL1       -0.0712
     11 C          62.0117   87.9182   11.1327 C.ar    1  UNL1        0.0448
     12 N          64.1703   87.3325   14.3357 N.am    1  UNL1       -0.2791
     13 C          64.7515   86.0368   14.8188 C.2     1  UNL1        0.2271
     14 O          65.5608   86.0022   16.0814 O.2     1  UNL1       -0.2747
     15 C          64.5234   84.7756   14.0395 C.3     1  UNL1        0.0942
     16 C          63.7142   84.8101   12.7770 C.3     1  UNL1        0.0577
     17 H          59.8674   85.8136    7.0556 H       1  UNL1        0.1437
     18 H          60.5956   84.4329    7.7419 H       1  UNL1        0.1437
     19 H          64.3200   88.1602   14.8473 H       1  UNL1        0.1553
     20 C          63.4861   83.5489   11.9976 C.ar    1  UNL1       -0.0073
     21 C          64.1110   83.3800   10.6446 C.ar    1  UNL1       -0.0031
     22 C          63.8829   82.1188    9.8652 C.ar    1  UNL1       -0.0003
     23 C          63.0299   81.0266   10.4389 C.ar    1  UNL1        0.0008
     24 C          62.4049   81.1955   11.7920 C.ar    1  UNL1        0.0111
     25 C          62.6330   82.4566   12.5713 C.ar    1  UNL1        0.0540
     26 CL         62.0080   82.6255   13.9245 Cl      1  UNL1       -0.0826
     27 C          59.8323   88.3424    7.8432 C.1     1  UNL1        0.1029
     28 N          59.0101   88.9743    6.7594 N.1     1  UNL1       -0.1907
@<TRIPOS>BOND
     1     1     2    1
     2     2     3   ar
     3     3    27    1
     4    27    28    3
     5     3     4   ar
     6     4     5    1
     7     4     6   ar
     8     6     7   ar
     9     7     8   ar
    10     8     9   ar
    11     9    10   ar
    12    10    11   ar
    13     9    12    1
    14    12    13   am
    15    13    14    2
    16    13    15    1
    17    15    16    1
    18    16    20    1
    19    20    21   ar
    20    21    22   ar
    21    22    23   ar
    22    23    24   ar
    23    24    25   ar
    24    25    26    1
    25    11     2   ar
    26    25    20   ar
    27    11     7   ar
    28    16     8    1
    29     5    17    1
    30     5    18    1
    31    12    19    1
@<TRIPOS>MOLECULE
*****
 28 31 0 0 0
SMALL
GASTEIGER

@<TRIPOS>ATOM
      1 C          62.7857   88.3725   13.4505 C.3     1  UNL1        0.0324
      2 C          63.2706   89.5540   12.6638 C.ar    1  UNL1       -0.0020
      3 C          62.7517   89.7959   11.2773 C.ar    1  UNL1        0.0960
      4 C          63.2366   90.9774   10.4906 C.ar    1  UNL1        0.1347
      5 N          62.7177   91.2194    9.1041 N.pl3   1  UNL1       -0.3421
      6 N          64.2405   91.9169   11.0903 N.ar    1  UNL1       -0.2302
      7 C          64.7594   91.6750   12.4767 C.ar    1  UNL1        0.0864
      8 C          65.7454   92.4231   13.3241 C.ar    1  UNL1        0.0199
      9 C          65.8698   91.7040   14.6346 C.ar    1  UNL1        0.0784
     10 S          64.9608   90.5115   14.5971 S.2     1  UNL1       -0.0712
     11 C          64.2745   90.4935   13.2634 C.ar    1  UNL1        0.0448
     12 N          66.7948   92.2280   15.6928 N.am    1  UNL1       -0.2791
     13 C          67.5954   93.4712   15.4404 C.2     1  UNL1        0.2271
     14 O          68.5205   93.9952   16.4986 O.2     1  UNL1       -0.2747
     15 C          67.4710   94.1903   14.1299 C.3     1  UNL1        0.0942
     16 C          66.5459   93.6662   13.0718 C.3     1  UNL1        0.0577
     17 H          62.0589   90.6028    8.7105 H       1  UNL1        0.1437
     18 H          63.0360   91.9948    8.5878 H       1  UNL1        0.1437
     19 H          66.8765   91.7561   16.5529 H       1  UNL1        0.1553
     20 C          66.4215   94.3853   11.7613 C.ar    1  UNL1       -0.0073
     21 C          65.7423   95.7214   11.7004 C.ar    1  UNL1       -0.0031
     22 C          65.6179   96.4405   10.3899 C.ar    1  UNL1       -0.0003
     23 C          66.1726   95.8236    9.1403 C.ar    1  UNL1        0.0008
     24 C          66.8518   94.4875    9.2011 C.ar    1  UNL1        0.0111
     25 C          66.9762   93.7684   10.5116 C.ar    1  UNL1        0.0540
     26 CL         67.6554   92.4323   10.5724 Cl      1  UNL1       -0.0826
     27 C          61.7479   88.8564   10.6777 C.1     1  UNL1        0.1029
     28 N          60.7440   87.9169   10.0780 N.1     1  UNL1       -0.1907
@<TRIPOS>BOND
     1     1     2    1
     2     2     3   ar
     3     3    27    1
     4    27    28    3
     5     3     4   ar
     6     4     5    1
     7     4     6   ar
     8     6     7   ar
     9     7     8   ar
    10     8     9   ar
    11     9    10   ar
    12    10    11   ar
    13     9    12    1
    14    12    13   am
    15    13    14    2
    16    13    15    1
    17    15    16    1
    18    16    20    1
    19    20    21   ar
    20    21    22   ar
    21    22    23   ar
    22    23    24   ar
    23    24    25   ar
    24    25    26    1
    25    11     2   ar
    26    25    20   ar
    27    11     7   ar
    28    16     8    1
    29     5    17    1
    30     5    18    1
    31    12    19    1
