@<TRIPOS>MOLECULE
*****
 44 48 0 0 0
SMALL
GASTEIGER

@<TRIPOS>ATOM
      1 C          61.8319   86.1552   10.9219 C.3     1  UNL1        0.1696
      2 C          62.5511   84.9825   11.5197 C.3     1  UNL1        0.1274
      3 N          63.4569   84.9512   12.7150 N.am    1  UNL1       -0.2518
      4 C          64.0280   83.6088   13.0638 C.2     1  UNL1        0.2528
      5 O          64.9461   83.4673   14.2416 O.2     1  UNL1       -0.2696
      6 C          63.8672   86.0848   13.6075 C.ar    1  UNL1        0.0678
      7 C          64.7910   85.6202   14.6941 C.ar    1  UNL1        0.0162
      8 C          65.3206   86.6004   15.6983 C.ar    1  UNL1        0.0014
      9 C          64.9264   88.0454   15.6160 C.ar    1  UNL1        0.0014
     10 C          64.0026   88.5100   14.5295 C.ar    1  UNL1        0.0162
     11 C          63.4730   87.5298   13.5252 C.ar    1  UNL1        0.0679
     12 N          62.5711   88.1979   12.5301 N.am    1  UNL1       -0.2517
     13 C          61.8408   87.5862   11.3715 C.2     1  UNL1        0.2493
     14 O          61.0094   88.5303   10.5545 O.2     1  UNL1       -0.2727
     15 C          63.6810   82.4077   12.2348 C.ar    1  UNL1        0.0539
     16 C          64.0205   82.3812   10.7741 C.ar    1  UNL1        0.0042
     17 C          63.6736   81.1802    9.9451 C.ar    1  UNL1       -0.0041
     18 C          62.9870   80.0057   10.5770 C.ar    1  UNL1       -0.0218
     19 C          62.6401   78.8046    9.7480 C.3     1  UNL1        0.0310
     20 C          62.6475   80.0323   12.0377 C.ar    1  UNL1       -0.0041
     21 C          62.9944   81.2332   12.8667 C.ar    1  UNL1        0.0042
     22 C          61.6476   85.6178    8.3867 C.2     1  UNL1        0.2371
     23 O          63.1416   85.6758    8.2658 O.2     1  UNL1       -0.2737
     24 N          60.9927   85.8575    9.7147 N.am    1  UNL1       -0.2959
     25 H          60.0122   85.8195    9.7940 H       1  UNL1        0.1499
     26 C          60.8085   85.3201    7.1795 C.3     1  UNL1        0.1316
     27 C          61.3893   84.5430    6.0354 C.3     1  UNL1        0.0270
     28 C          59.0508   87.2007    7.5319 C.3     1  UNL1        0.0862
     29 N          59.3886   85.7995    7.1164 N.3     1  UNL1       -0.2902
     30 H          59.0866   85.6989    6.1473 H       1  UNL1        0.1237
     31 C          62.3735   89.6729   12.7185 C.3     1  UNL1        0.1278
     32 C          63.3211   90.6443   12.0792 C.ar    1  UNL1        0.0320
     33 C          63.2193   90.9354   10.6113 C.ar    1  UNL1        0.1363
     34 C          64.1668   91.9068    9.9719 C.ar    1  UNL1        0.0366
     35 C          65.2159   92.5870   10.8005 C.ar    1  UNL1        0.0031
     36 C          65.3176   92.2959   12.2685 C.ar    1  UNL1        0.0004
     37 C          66.3668   92.9761   13.0971 C.ar    1  UNL1        0.0067
     38 C          66.4684   92.6849   14.5651 C.ar    1  UNL1        0.0346
     39 BR         67.5175   93.3651   15.3937 Br      1  UNL1       -0.0490
     40 C          65.5209   91.7135   15.2044 C.ar    1  UNL1        0.0067
     41 C          64.4718   91.0333   14.3757 C.ar    1  UNL1        0.0003
     42 C          64.3702   91.3245   12.9079 C.ar    1  UNL1        0.0006
     43 O          62.1702   90.2552    9.7826 O.3     1  UNL1       -0.4717
     44 C          60.7109   90.5032    9.5403 C.3     1  UNL1        0.2525
@<TRIPOS>BOND
     1    28    29    1
     2    29    26    1
     3    26    27    1
     4    26    22    1
     5    22    23    2
     6    22    24   am
     7     1    24    1
     8     1     2    1
     9     2     3    1
    10     3     4   am
    11     4     5    2
    12     4    15    1
    13    15    16   ar
    14    16    17   ar
    15    17    18   ar
    16    18    19    1
    17    18    20   ar
    18    20    21   ar
    19     3     6    1
    20     6     7   ar
    21     7     8   ar
    22     8     9   ar
    23     9    10   ar
    24    10    11   ar
    25    11    12    1
    26    12    31    1
    27    31    32    1
    28    32    33   ar
    29    33    43    1
    30    43    44    1
    31    33    34   ar
    32    34    35   ar
    33    35    36   ar
    34    36    37   ar
    35    37    38   ar
    36    38    39    1
    37    38    40   ar
    38    40    41   ar
    39    41    42   ar
    40    12    13   am
    41    13    14    2
    42    13     1    1
    43    21    15   ar
    44    11     6   ar
    45    42    32   ar
    46    42    36   ar
    47    29    30    1
    48    24    25    1
@<TRIPOS>MOLECULE
*****
 44 48 0 0 0
SMALL
GASTEIGER

@<TRIPOS>ATOM
      1 C          62.8001   86.8130   11.6696 C.3     1  UNL1        0.1696
      2 C          62.8828   85.7579   12.7326 C.3     1  UNL1        0.1274
      3 N          63.0168   85.9336   14.2162 N.am    1  UNL1       -0.2518
      4 C          63.0740   84.6678   15.0190 C.2     1  UNL1        0.2528
      5 O          63.2075   84.7316   16.5117 O.2     1  UNL1       -0.2696
      6 C          63.1011   87.2077   15.0034 C.ar    1  UNL1        0.0678
      7 C          63.2288   86.9365   16.4731 C.ar    1  UNL1        0.0162
      8 C          63.3277   88.0784   17.4406 C.ar    1  UNL1        0.0014
      9 C          63.2989   89.4916   16.9384 C.ar    1  UNL1        0.0014
     10 C          63.1712   89.7628   15.4687 C.ar    1  UNL1        0.0162
     11 C          63.0723   88.6209   14.5012 C.ar    1  UNL1        0.0679
     12 N          62.9520   89.1089   13.0879 N.am    1  UNL1       -0.2517
     13 C          62.8309   88.3044   11.8277 C.2     1  UNL1        0.2493
     14 O          62.7268   89.0958   10.5578 O.2     1  UNL1       -0.2727
     15 C          62.9977   83.3380   14.3290 C.ar    1  UNL1        0.0539
     16 C          61.7872   82.4700   14.5054 C.ar    1  UNL1        0.0042
     17 C          61.7108   81.1403   13.8154 C.ar    1  UNL1       -0.0041
     18 C          62.8450   80.6786   12.9491 C.ar    1  UNL1       -0.0218
     19 C          62.7687   79.3489   12.2591 C.3     1  UNL1        0.0310
     20 C          64.0555   81.5467   12.7727 C.ar    1  UNL1       -0.0041
     21 C          64.1319   82.8764   13.4626 C.ar    1  UNL1        0.0042
     22 C          61.3288   86.3055    9.5893 C.2     1  UNL1        0.2371
     23 O          60.1191   86.8035   10.3234 O.2     1  UNL1       -0.2737
     24 N          62.6692   86.3103   10.2625 N.am    1  UNL1       -0.2959
     25 H          63.4631   85.9835    9.7807 H       1  UNL1        0.1499
     26 C          61.1979   85.8028    8.1821 C.3     1  UNL1        0.1316
     27 C          62.3974   85.2555    7.4667 C.3     1  UNL1        0.0270
     28 C          59.0699   87.1176    7.4803 C.3     1  UNL1        0.0862
     29 N          59.8677   85.8474    7.4904 N.3     1  UNL1       -0.2902
     30 H          60.0341   85.5964    6.5159 H       1  UNL1        0.1237
     31 C          62.9530   90.5985   12.9115 C.3     1  UNL1        0.1278
     32 C          64.1541   91.2842   12.3305 C.ar    1  UNL1        0.0320
     33 C          64.1779   91.6507   10.8762 C.ar    1  UNL1        0.1363
     34 C          65.3789   92.3364   10.2951 C.ar    1  UNL1        0.0366
     35 C          66.5559   92.6555   11.1685 C.ar    1  UNL1        0.0031
     36 C          66.5320   92.2890   12.6229 C.ar    1  UNL1        0.0004
     37 C          67.7091   92.6081   13.4962 C.ar    1  UNL1        0.0067
     38 C          67.6851   92.2415   14.9505 C.ar    1  UNL1        0.0346
     39 BR         68.8622   92.5607   15.8238 Br      1  UNL1       -0.0490
     40 C          66.4841   91.5559   15.5315 C.ar    1  UNL1        0.0067
     41 C          65.3071   91.2368   14.6581 C.ar    1  UNL1        0.0003
     42 C          65.3311   91.6033   13.2039 C.ar    1  UNL1        0.0006
     43 O          63.0009   91.3316   10.0028 O.3     1  UNL1       -0.4717
     44 C          61.5290   91.1836   10.2507 C.3     1  UNL1        0.2525
@<TRIPOS>BOND
     1    28    29    1
     2    29    26    1
     3    26    27    1
     4    26    22    1
     5    22    23    2
     6    22    24   am
     7     1    24    1
     8     1     2    1
     9     2     3    1
    10     3     4   am
    11     4     5    2
    12     4    15    1
    13    15    16   ar
    14    16    17   ar
    15    17    18   ar
    16    18    19    1
    17    18    20   ar
    18    20    21   ar
    19     3     6    1
    20     6     7   ar
    21     7     8   ar
    22     8     9   ar
    23     9    10   ar
    24    10    11   ar
    25    11    12    1
    26    12    31    1
    27    31    32    1
    28    32    33   ar
    29    33    43    1
    30    43    44    1
    31    33    34   ar
    32    34    35   ar
    33    35    36   ar
    34    36    37   ar
    35    37    38   ar
    36    38    39    1
    37    38    40   ar
    38    40    41   ar
    39    41    42   ar
    40    12    13   am
    41    13    14    2
    42    13     1    1
    43    21    15   ar
    44    11     6   ar
    45    42    32   ar
    46    42    36   ar
    47    29    30    1
    48    24    25    1
@<TRIPOS>MOLECULE
*****
 44 48 0 0 0
SMALL
GASTEIGER

@<TRIPOS>ATOM
      1 C          63.6414   91.1835   11.0694 C.3     1  UNL1        0.1696
      2 C          63.9360   91.1256   12.5391 C.3     1  UNL1        0.1274
      3 N          63.0755   90.5904   13.6450 N.am    1  UNL1       -0.2518
      4 C          63.6599   90.6761   15.0239 C.2     1  UNL1        0.2528
      5 O          62.8813   90.1687   16.2014 O.2     1  UNL1       -0.2696
      6 C          61.7080   89.9808   13.5545 C.ar    1  UNL1        0.0678
      7 C          61.1991   89.5734   14.9054 C.ar    1  UNL1        0.0162
      8 C          59.8453   88.9410   15.0375 C.ar    1  UNL1        0.0014
      9 C          59.0005   88.7161   13.8186 C.ar    1  UNL1        0.0014
     10 C          59.5094   89.1235   12.4677 C.ar    1  UNL1        0.0162
     11 C          60.8631   89.7559   12.3357 C.ar    1  UNL1        0.0679
     12 N          61.1772   90.0850   10.9063 N.am    1  UNL1       -0.2517
     13 C          62.4136   90.7203   10.3427 C.2     1  UNL1        0.2493
     14 O          62.4236   90.9188    8.8560 O.2     1  UNL1       -0.2727
     15 C          65.0229   91.2691   15.2253 C.ar    1  UNL1        0.0539
     16 C          66.1688   90.8243   14.3658 C.ar    1  UNL1        0.0042
     17 C          67.5318   91.4173   14.5671 C.ar    1  UNL1       -0.0041
     18 C          67.7488   92.4552   15.6281 C.ar    1  UNL1       -0.0218
     19 C          69.1119   93.0483   15.8295 C.3     1  UNL1        0.0310
     20 C          66.6029   92.9001   16.4876 C.ar    1  UNL1       -0.0041
     21 C          65.2399   92.3071   16.2862 C.ar    1  UNL1        0.0042
     22 C          65.6267   92.8339   10.7784 C.2     1  UNL1        0.2371
     23 O          65.4612   93.2837   12.1998 O.2     1  UNL1       -0.2737
     24 N          64.7168   91.7838   10.2132 N.am    1  UNL1       -0.2959
     25 H          64.8255   91.4886    9.2803 H       1  UNL1        0.1499
     26 C          66.7021   93.4342    9.9222 C.3     1  UNL1        0.1316
     27 C          67.9736   92.6777    9.6749 C.3     1  UNL1        0.0270
     28 C          66.8915   96.0205   10.0811 C.3     1  UNL1        0.0862
     29 N          66.5060   94.7909    9.3133 N.3     1  UNL1       -0.2902
     30 H          67.0430   94.8049    8.4462 H       1  UNL1        0.1237
     31 C          60.1142   89.7322    9.9085 C.3     1  UNL1        0.1278
     32 C          60.2311   88.4731    9.1016 C.ar    1  UNL1        0.0320
     33 C          59.5690   88.3787    7.7590 C.ar    1  UNL1        0.1363
     34 C          59.6859   87.1196    6.9520 C.ar    1  UNL1        0.0366
     35 C          60.4649   85.9550    7.4877 C.ar    1  UNL1        0.0031
     36 C          61.1270   86.0495    8.8303 C.ar    1  UNL1        0.0004
     37 C          61.9061   84.8850    9.3660 C.ar    1  UNL1        0.0067
     38 C          62.5681   84.9795   10.7087 C.ar    1  UNL1        0.0346
     39 BR         63.3471   83.8149   11.2443 Br      1  UNL1       -0.0490
     40 C          62.4512   86.2385   11.5157 C.ar    1  UNL1        0.0067
     41 C          61.6722   87.4030   10.9799 C.ar    1  UNL1        0.0003
     42 C          61.0102   87.3086    9.6373 C.ar    1  UNL1        0.0006
     43 O          58.7900   89.5432    7.2232 O.3     1  UNL1       -0.4717
     44 C          58.7465   90.2475    5.8996 C.3     1  UNL1        0.2525
@<TRIPOS>BOND
     1    28    29    1
     2    29    26    1
     3    26    27    1
     4    26    22    1
     5    22    23    2
     6    22    24   am
     7     1    24    1
     8     1     2    1
     9     2     3    1
    10     3     4   am
    11     4     5    2
    12     4    15    1
    13    15    16   ar
    14    16    17   ar
    15    17    18   ar
    16    18    19    1
    17    18    20   ar
    18    20    21   ar
    19     3     6    1
    20     6     7   ar
    21     7     8   ar
    22     8     9   ar
    23     9    10   ar
    24    10    11   ar
    25    11    12    1
    26    12    31    1
    27    31    32    1
    28    32    33   ar
    29    33    43    1
    30    43    44    1
    31    33    34   ar
    32    34    35   ar
    33    35    36   ar
    34    36    37   ar
    35    37    38   ar
    36    38    39    1
    37    38    40   ar
    38    40    41   ar
    39    41    42   ar
    40    12    13   am
    41    13    14    2
    42    13     1    1
    43    21    15   ar
    44    11     6   ar
    45    42    32   ar
    46    42    36   ar
    47    29    30    1
    48    24    25    1
@<TRIPOS>MOLECULE
*****
 44 48 0 0 0
SMALL
GASTEIGER

@<TRIPOS>ATOM
      1 C          61.5814   89.0330    9.5567 C.3     1  UNL1        0.1696
      2 C          61.9290   87.5998    9.2824 C.3     1  UNL1        0.1274
      3 N          62.5274   86.5878   10.2140 N.am    1  UNL1       -0.2518
      4 C          62.7576   85.2243    9.6328 C.2     1  UNL1        0.2528
      5 O          63.3520   84.1384   10.4800 O.2     1  UNL1       -0.2696
      6 C          62.9263   86.7591   11.6498 C.ar    1  UNL1        0.0678
      7 C          63.4885   85.4896   12.2175 C.ar    1  UNL1        0.0162
      8 C          63.9495   85.4457   13.6442 C.ar    1  UNL1        0.0014
      9 C          63.8483   86.6713   14.5032 C.ar    1  UNL1        0.0014
     10 C          63.2861   87.9407   13.9355 C.ar    1  UNL1        0.0162
     11 C          62.8251   87.9846   12.5088 C.ar    1  UNL1        0.0679
     12 N          62.3001   89.3416   12.1440 N.am    1  UNL1       -0.2517
     13 C          61.7466   89.8082   10.8302 C.2     1  UNL1        0.2493
     14 O          61.2991   91.2391   10.7838 O.2     1  UNL1       -0.2727
     15 C          62.3933   84.9465    8.2044 C.ar    1  UNL1        0.0539
     16 C          60.9557   84.9759    7.7777 C.ar    1  UNL1        0.0042
     17 C          60.5913   84.6981    6.3494 C.ar    1  UNL1       -0.0041
     18 C          61.6648   84.3911    5.3477 C.ar    1  UNL1       -0.0218
     19 C          61.3006   84.1133    3.9194 C.3     1  UNL1        0.0310
     20 C          63.1025   84.3617    5.7744 C.ar    1  UNL1       -0.0041
     21 C          63.4668   84.6395    7.2027 C.ar    1  UNL1        0.0042
     22 C          59.8664   89.1942    7.6119 C.2     1  UNL1        0.2371
     23 O          59.3328   87.8387    7.9700 O.2     1  UNL1       -0.2737
     24 N          60.9907   89.7913    8.4052 N.am    1  UNL1       -0.2959
     25 H          61.3408   90.6808    8.1701 H       1  UNL1        0.1499
     26 C          59.2756   89.9525    6.4604 C.3     1  UNL1        0.1316
     27 C          60.1738   90.6448    5.4785 C.3     1  UNL1        0.0270
     28 C          57.1881   90.9426    5.2721 C.3     1  UNL1        0.0862
     29 N          57.7867   90.0184    6.2907 N.3     1  UNL1       -0.2902
     30 H          57.4754   89.0767    6.0527 H       1  UNL1        0.1237
     31 C          62.3329   90.3676   13.2376 C.3     1  UNL1        0.1278
     32 C          63.6444   90.9317   13.6979 C.ar    1  UNL1        0.0320
     33 C          64.0109   90.8874   15.1517 C.ar    1  UNL1        0.1363
     34 C          65.3224   91.4514   15.6120 C.ar    1  UNL1        0.0366
     35 C          66.2674   92.0597   14.6185 C.ar    1  UNL1        0.0031
     36 C          65.9008   92.1039   13.1646 C.ar    1  UNL1        0.0004
     37 C          66.8458   92.7121   12.1710 C.ar    1  UNL1        0.0067
     38 C          66.4792   92.7563   10.7172 C.ar    1  UNL1        0.0346
     39 BR         67.4241   93.3645    9.7237 Br      1  UNL1       -0.0490
     40 C          65.1676   92.1923   10.2569 C.ar    1  UNL1        0.0067
     41 C          64.2228   91.5841   11.2505 C.ar    1  UNL1        0.0003
     42 C          64.5893   91.5399   12.7043 C.ar    1  UNL1        0.0006
     43 O          63.0661   90.2792   16.1453 O.3     1  UNL1       -0.4717
     44 C          63.1199   89.0678   17.0283 C.3     1  UNL1        0.2525
@<TRIPOS>BOND
     1    28    29    1
     2    29    26    1
     3    26    27    1
     4    26    22    1
     5    22    23    2
     6    22    24   am
     7     1    24    1
     8     1     2    1
     9     2     3    1
    10     3     4   am
    11     4     5    2
    12     4    15    1
    13    15    16   ar
    14    16    17   ar
    15    17    18   ar
    16    18    19    1
    17    18    20   ar
    18    20    21   ar
    19     3     6    1
    20     6     7   ar
    21     7     8   ar
    22     8     9   ar
    23     9    10   ar
    24    10    11   ar
    25    11    12    1
    26    12    31    1
    27    31    32    1
    28    32    33   ar
    29    33    43    1
    30    43    44    1
    31    33    34   ar
    32    34    35   ar
    33    35    36   ar
    34    36    37   ar
    35    37    38   ar
    36    38    39    1
    37    38    40   ar
    38    40    41   ar
    39    41    42   ar
    40    12    13   am
    41    13    14    2
    42    13     1    1
    43    21    15   ar
    44    11     6   ar
    45    42    32   ar
    46    42    36   ar
    47    29    30    1
    48    24    25    1
@<TRIPOS>MOLECULE
*****
 44 48 0 0 0
SMALL
GASTEIGER

@<TRIPOS>ATOM
      1 C          63.0883   86.0917   12.2565 C.3     1  UNL1        0.1696
      2 C          62.9525   84.9366   13.2039 C.3     1  UNL1        0.1274
      3 N          62.9132   84.9566   14.7032 N.am    1  UNL1       -0.2518
      4 C          62.7678   83.6199   15.3682 C.2     1  UNL1        0.2528
      5 O          62.7180   83.5281   16.8647 O.2     1  UNL1       -0.2696
      6 C          63.0001   86.1363   15.6256 C.ar    1  UNL1        0.0678
      7 C          62.9206   85.7152   17.0630 C.ar    1  UNL1        0.0162
      8 C          62.9887   86.7453   18.1511 C.ar    1  UNL1        0.0014
      9 C          63.1363   88.1966   17.8019 C.ar    1  UNL1        0.0014
     10 C          63.2158   88.6177   16.3644 C.ar    1  UNL1        0.0162
     11 C          63.1477   87.5876   15.2763 C.ar    1  UNL1        0.0679
     12 N          63.2448   88.2175   13.9184 N.am    1  UNL1       -0.2517
     13 C          63.2184   87.5518   12.5745 C.2     1  UNL1        0.2493
     14 O          63.3379   88.4672   11.3923 O.2     1  UNL1       -0.2727
     15 C          62.6723   82.3750   14.5369 C.ar    1  UNL1        0.0539
     16 C          63.8724   81.8816   13.7845 C.ar    1  UNL1        0.0042
     17 C          63.7769   80.6368   12.9532 C.ar    1  UNL1       -0.0041
     18 C          62.4812   79.8853   12.8742 C.ar    1  UNL1       -0.0218
     19 C          62.3856   78.6403   12.0428 C.3     1  UNL1        0.0310
     20 C          61.2810   80.3786   13.6265 C.ar    1  UNL1       -0.0041
     21 C          61.3765   81.6235   14.4579 C.ar    1  UNL1        0.0042
     22 C          61.8662   85.9632    9.9675 C.2     1  UNL1        0.2371
     23 O          60.6307   86.5379   10.5948 O.2     1  UNL1       -0.2737
     24 N          63.0949   85.7400   10.7983 N.am    1  UNL1       -0.2959
     25 H          63.9057   85.3628   10.3866 H       1  UNL1        0.1499
     26 C          61.8728   85.6115    8.5093 C.3     1  UNL1        0.1316
     27 C          63.1086   85.0381    7.8816 C.3     1  UNL1        0.0270
     28 C          59.9173   87.1439    7.7490 C.3     1  UNL1        0.0862
     29 N          60.6436   85.8333    7.6787 N.3     1  UNL1       -0.2902
     30 H          60.9180   85.7006    6.7053 H       1  UNL1        0.1237
     31 C          63.3873   89.7106   13.9024 C.3     1  UNL1        0.1278
     32 C          63.2349   90.4649   12.6147 C.ar    1  UNL1        0.0320
     33 C          61.9418   90.4019   11.8573 C.ar    1  UNL1        0.1363
     34 C          61.7893   91.1561   10.5696 C.ar    1  UNL1        0.0366
     35 C          62.9301   91.9732   10.0395 C.ar    1  UNL1        0.0031
     36 C          64.2233   92.0361   10.7970 C.ar    1  UNL1        0.0004
     37 C          65.3640   92.8532   10.2668 C.ar    1  UNL1        0.0067
     38 C          66.6572   92.9161   11.0244 C.ar    1  UNL1        0.0346
     39 BR         67.7979   93.7332   10.4942 Br      1  UNL1       -0.0490
     40 C          66.8096   92.1619   12.3120 C.ar    1  UNL1        0.0067
     41 C          65.6688   91.3448   12.8421 C.ar    1  UNL1        0.0003
     42 C          64.3757   91.2819   12.0846 C.ar    1  UNL1        0.0006
     43 O          60.8010   89.5849   12.3873 O.3     1  UNL1       -0.4717
     44 C          59.3257   89.5564   12.1175 C.3     1  UNL1        0.2525
@<TRIPOS>BOND
     1    28    29    1
     2    29    26    1
     3    26    27    1
     4    26    22    1
     5    22    23    2
     6    22    24   am
     7     1    24    1
     8     1     2    1
     9     2     3    1
    10     3     4   am
    11     4     5    2
    12     4    15    1
    13    15    16   ar
    14    16    17   ar
    15    17    18   ar
    16    18    19    1
    17    18    20   ar
    18    20    21   ar
    19     3     6    1
    20     6     7   ar
    21     7     8   ar
    22     8     9   ar
    23     9    10   ar
    24    10    11   ar
    25    11    12    1
    26    12    31    1
    27    31    32    1
    28    32    33   ar
    29    33    43    1
    30    43    44    1
    31    33    34   ar
    32    34    35   ar
    33    35    36   ar
    34    36    37   ar
    35    37    38   ar
    36    38    39    1
    37    38    40   ar
    38    40    41   ar
    39    41    42   ar
    40    12    13   am
    41    13    14    2
    42    13     1    1
    43    21    15   ar
    44    11     6   ar
    45    42    32   ar
    46    42    36   ar
    47    29    30    1
    48    24    25    1
