@<TRIPOS>MOLECULE
*****
 29 32 0 0 0
SMALL
GASTEIGER

@<TRIPOS>ATOM
      1 C          65.3398   92.2581   14.3038 C.ar    1  UNL1        0.0991
      2 S          66.2736   93.0630   13.4493 S.2     1  UNL1       -0.0473
      3 C          66.0386   92.6801   12.0182 C.ar    1  UNL1        0.1630
      4 N          64.9596   91.6386   11.9881 N.ar    1  UNL1       -0.2278
      5 C          64.5277   91.3778   13.4007 C.ar    1  UNL1        0.0805
      6 N          66.7567   93.2403   10.8263 N.pl3   1  UNL1       -0.2830
      7 C          66.5278   94.6642   10.4139 C.3     1  UNL1        0.1247
      8 C          67.2459   95.2244    9.2220 C.3     1  UNL1        0.1636
      9 O          68.1929   94.3608    8.4426 O.3     1  UNL1       -0.3501
     10 C          68.4217   92.9369    8.8552 C.3     1  UNL1        0.1636
     11 C          67.7036   92.3767   10.0470 C.3     1  UNL1        0.1247
     12 N          66.4193   92.7515   16.6149 N.am    1  UNL1       -0.3249
     13 C          65.2362   92.3223   15.7989 C.2     1  UNL1        0.2500
     14 O          63.9494   91.9573   16.4779 O.2     1  UNL1       -0.2698
     15 H          66.3514   92.7936   17.5961 H       1  UNL1        0.1453
     16 H          67.2639   92.9910   16.1692 H       1  UNL1        0.1453
     17 C          63.4694   90.4071   13.8342 C.3     1  UNL1        0.1319
     18 C          63.1835   89.1899   13.0055 C.2     1  UNL1        0.2354
     19 O          63.8300   87.8805   13.3481 O.2     1  UNL1       -0.2741
     20 N          62.2509   89.2821   11.8343 N.am    1  UNL1       -0.2583
     21 C          61.5343   90.5164   11.3728 C.3     1  UNL1        0.1029
     22 C          60.7118   90.1533   10.1722 C.3     1  UNL1        0.0503
     23 C          60.9199   88.6946    9.8915 C.ar    1  UNL1        0.0038
     24 C          60.3663   87.7870    8.8334 C.ar    1  UNL1        0.0549
     25 CL         59.4151   88.3254    7.8062 Cl      1  UNL1       -0.0825
     26 C          60.7638   86.3410    8.8024 C.ar    1  UNL1        0.0112
     27 C          61.7151   85.8025    9.8297 C.ar    1  UNL1        0.0021
     28 C          62.2688   86.7101   10.8879 C.ar    1  UNL1        0.0146
     29 C          61.8712   88.1562   10.9188 C.ar    1  UNL1        0.0507
@<TRIPOS>BOND
     1    12    13   am
     2    13    14    2
     3    13     1    1
     4     1     2   ar
     5     2     3   ar
     6     3     6    1
     7     6     7    1
     8     7     8    1
     9     8     9    1
    10     9    10    1
    11    10    11    1
    12     3     4   ar
    13     4     5   ar
    14     5    17    1
    15    17    18    1
    16    18    19    2
    17    18    20   am
    18    20    21    1
    19    21    22    1
    20    22    23    1
    21    23    24   ar
    22    24    25    1
    23    24    26   ar
    24    26    27   ar
    25    27    28   ar
    26    28    29   ar
    27     5     1   ar
    28    29    20    1
    29    11     6    1
    30    29    23   ar
    31    12    15    1
    32    12    16    1
@<TRIPOS>MOLECULE
*****
 29 32 0 0 0
SMALL
GASTEIGER

@<TRIPOS>ATOM
      1 C          60.8320   87.4552    9.7539 C.ar    1  UNL1        0.0991
      2 S          61.2807   86.0250    9.8082 S.2     1  UNL1       -0.0473
      3 C          62.2076   85.8739   10.9779 C.ar    1  UNL1        0.1630
      4 N          62.3317   87.2109   11.6466 N.ar    1  UNL1       -0.2278
      5 C          61.4815   88.1882   10.8901 C.ar    1  UNL1        0.0805
      6 N          62.8905   84.6082   11.4040 N.pl3   1  UNL1       -0.2830
      7 C          62.8741   84.1961   12.8461 C.3     1  UNL1        0.1247
      8 C          63.5570   82.9304   13.2722 C.3     1  UNL1        0.1636
      9 O          64.2563   82.0767   12.2561 O.3     1  UNL1       -0.3501
     10 C          64.2726   82.4889   10.8140 C.3     1  UNL1        0.1636
     11 C          63.5897   83.7546   10.3879 C.3     1  UNL1        0.1247
     12 N          60.1256   89.4424    8.2367 N.am    1  UNL1       -0.3249
     13 C          59.8977   88.0484    8.7413 C.2     1  UNL1        0.2500
     14 O          58.7356   87.2474    8.2334 O.2     1  UNL1       -0.2698
     15 H          59.5124   89.8317    7.5721 H       1  UNL1        0.1453
     16 H          60.8883   89.9681    8.5701 H       1  UNL1        0.1453
     17 C          61.3108   89.6430   11.2132 C.3     1  UNL1        0.1319
     18 C          62.4968   90.5610   11.1882 C.2     1  UNL1        0.2354
     19 O          62.8621   91.2801    9.9236 O.2     1  UNL1       -0.2741
     20 N          63.3174   90.7599   12.4280 N.am    1  UNL1       -0.2583
     21 C          63.0752   90.1122   13.7590 C.3     1  UNL1        0.1029
     22 C          64.1325   90.5935   14.7079 C.3     1  UNL1        0.0503
     23 C          65.0282   91.5387   13.9634 C.ar    1  UNL1        0.0038
     24 C          66.2374   92.3189   14.3865 C.ar    1  UNL1        0.0549
     25 CL         66.7412   92.2161   15.7955 Cl      1  UNL1       -0.0825
     26 C          66.9429   93.2021   13.4004 C.ar    1  UNL1        0.0112
     27 C          66.4392   93.3050   11.9912 C.ar    1  UNL1        0.0021
     28 C          65.2299   92.5247   11.5681 C.ar    1  UNL1        0.0146
     29 C          64.5244   91.6415   12.5542 C.ar    1  UNL1        0.0507
@<TRIPOS>BOND
     1    12    13   am
     2    13    14    2
     3    13     1    1
     4     1     2   ar
     5     2     3   ar
     6     3     6    1
     7     6     7    1
     8     7     8    1
     9     8     9    1
    10     9    10    1
    11    10    11    1
    12     3     4   ar
    13     4     5   ar
    14     5    17    1
    15    17    18    1
    16    18    19    2
    17    18    20   am
    18    20    21    1
    19    21    22    1
    20    22    23    1
    21    23    24   ar
    22    24    25    1
    23    24    26   ar
    24    26    27   ar
    25    27    28   ar
    26    28    29   ar
    27     5     1   ar
    28    29    20    1
    29    11     6    1
    30    29    23   ar
    31    12    15    1
    32    12    16    1
@<TRIPOS>MOLECULE
*****
 29 32 0 0 0
SMALL
GASTEIGER

@<TRIPOS>ATOM
      1 C          65.9818   92.6084   14.4287 C.ar    1  UNL1        0.0991
      2 S          66.5792   93.6088   13.4841 S.2     1  UNL1       -0.0473
      3 C          66.0228   93.3448   12.1164 C.ar    1  UNL1        0.1630
      4 N          65.0815   92.1811   12.2156 N.ar    1  UNL1       -0.2278
      5 C          65.0562   91.7260   13.6447 C.ar    1  UNL1        0.0805
      6 N          66.3502   94.1101   10.8685 N.pl3   1  UNL1       -0.2830
      7 C          67.2547   93.5075    9.8348 C.3     1  UNL1        0.1247
      8 C          67.5821   94.2728    8.5870 C.3     1  UNL1        0.1636
      9 O          67.0050   95.6407    8.3728 O.3     1  UNL1       -0.3501
     10 C          66.1004   96.2432    9.4067 C.3     1  UNL1        0.1636
     11 C          65.7730   95.4779   10.6544 C.3     1  UNL1        0.1247
     12 N          65.1443   92.6704   16.8873 N.am    1  UNL1       -0.3249
     13 C          66.2610   92.5079   15.8990 C.2     1  UNL1        0.2500
     14 O          67.6569   92.2450   16.3811 O.2     1  UNL1       -0.2698
     15 H          65.3276   92.6045   17.8523 H       1  UNL1        0.1453
     16 H          64.2282   92.8429   16.5708 H       1  UNL1        0.1453
     17 C          64.2473   90.5882   14.1934 C.3     1  UNL1        0.1319
     18 C          63.6637   89.5660   13.2636 C.2     1  UNL1        0.2354
     19 O          62.9346   90.0050   12.0285 O.2     1  UNL1       -0.2741
     20 N          63.8092   88.1046   13.5691 N.am    1  UNL1       -0.2583
     21 C          64.5079   87.5181   14.7597 C.3     1  UNL1        0.1029
     22 C          64.4121   86.0242   14.6640 C.3     1  UNL1        0.0503
     23 C          63.6542   85.6874   13.4141 C.ar    1  UNL1        0.0038
     24 C          63.2552   84.3762   12.8048 C.ar    1  UNL1        0.0549
     25 CL         63.6278   83.0904   13.4814 Cl      1  UNL1       -0.0825
     26 C          62.4836   84.3506   11.5187 C.ar    1  UNL1        0.0112
     27 C          62.1110   85.6364   10.8420 C.ar    1  UNL1        0.0021
     28 C          62.5100   86.9478   11.4513 C.ar    1  UNL1        0.0146
     29 C          63.2816   86.9733   12.7374 C.ar    1  UNL1        0.0507
@<TRIPOS>BOND
     1    12    13   am
     2    13    14    2
     3    13     1    1
     4     1     2   ar
     5     2     3   ar
     6     3     6    1
     7     6     7    1
     8     7     8    1
     9     8     9    1
    10     9    10    1
    11    10    11    1
    12     3     4   ar
    13     4     5   ar
    14     5    17    1
    15    17    18    1
    16    18    19    2
    17    18    20   am
    18    20    21    1
    19    21    22    1
    20    22    23    1
    21    23    24   ar
    22    24    25    1
    23    24    26   ar
    24    26    27   ar
    25    27    28   ar
    26    28    29   ar
    27     5     1   ar
    28    29    20    1
    29    11     6    1
    30    29    23   ar
    31    12    15    1
    32    12    16    1
@<TRIPOS>MOLECULE
*****
 29 32 0 0 0
SMALL
GASTEIGER

@<TRIPOS>ATOM
      1 C          64.2807   91.2028   13.9608 C.ar    1  UNL1        0.0991
      2 S          65.3835   92.1199   13.5219 S.2     1  UNL1       -0.0473
      3 C          65.3169   92.2436   12.0285 C.ar    1  UNL1        0.1630
      4 N          64.1729   91.4029   11.5444 N.ar    1  UNL1       -0.2278
      5 C          63.5325   90.7597   12.7386 C.ar    1  UNL1        0.0805
      6 N          66.2334   93.0640   11.1700 N.pl3   1  UNL1       -0.2830
      7 C          66.0692   94.5536   11.1078 C.3     1  UNL1        0.1247
      8 C          66.9857   95.3740   10.2493 C.3     1  UNL1        0.1636
      9 O          68.0665   94.7046    9.4530 O.3     1  UNL1       -0.3501
     10 C          68.2307   93.2150    9.5154 C.3     1  UNL1        0.1636
     11 C          67.3142   92.3947   10.3738 C.3     1  UNL1        0.1247
     12 N          63.8620   89.3473   15.7305 N.am    1  UNL1       -0.3249
     13 C          63.9790   90.7995   15.3737 C.2     1  UNL1        0.2500
     14 O          63.7945   91.8486   16.4299 O.2     1  UNL1       -0.2698
     15 H          63.6640   89.0827   16.6579 H       1  UNL1        0.1453
     16 H          63.9831   88.6588   15.0373 H       1  UNL1        0.1453
     17 C          62.3512   89.8355   12.7147 C.3     1  UNL1        0.1319
     18 C          61.5172   89.7163   11.4737 C.2     1  UNL1        0.2354
     19 O          60.6546   90.8629   11.0367 O.2     1  UNL1       -0.2741
     20 N          61.5459   88.4502   10.6696 N.am    1  UNL1       -0.2583
     21 C          62.3551   87.2263   10.9807 C.3     1  UNL1        0.1029
     22 C          62.0796   86.2056    9.9166 C.3     1  UNL1        0.0503
     23 C          61.1001   86.7987    8.9478 C.ar    1  UNL1        0.0038
     24 C          60.4659   86.2549    7.7020 C.ar    1  UNL1        0.0549
     25 CL         60.7958   84.8676    7.2367 Cl      1  UNL1       -0.0825
     26 C          59.5018   87.0983    6.9216 C.ar    1  UNL1        0.0112
     27 C          59.1718   88.4856    7.3869 C.ar    1  UNL1        0.0021
     28 C          59.8061   89.0295    8.6328 C.ar    1  UNL1        0.0146
     29 C          60.7702   88.1861    9.4132 C.ar    1  UNL1        0.0507
@<TRIPOS>BOND
     1    12    13   am
     2    13    14    2
     3    13     1    1
     4     1     2   ar
     5     2     3   ar
     6     3     6    1
     7     6     7    1
     8     7     8    1
     9     8     9    1
    10     9    10    1
    11    10    11    1
    12     3     4   ar
    13     4     5   ar
    14     5    17    1
    15    17    18    1
    16    18    19    2
    17    18    20   am
    18    20    21    1
    19    21    22    1
    20    22    23    1
    21    23    24   ar
    22    24    25    1
    23    24    26   ar
    24    26    27   ar
    25    27    28   ar
    26    28    29   ar
    27     5     1   ar
    28    29    20    1
    29    11     6    1
    30    29    23   ar
    31    12    15    1
    32    12    16    1
@<TRIPOS>MOLECULE
*****
 29 32 0 0 0
SMALL
GASTEIGER

@<TRIPOS>ATOM
      1 C          60.9345   87.4051    9.8856 C.ar    1  UNL1        0.0991
      2 S          61.3585   85.9704    9.7762 S.2     1  UNL1       -0.0473
      3 C          62.2004   85.6432   10.9738 C.ar    1  UNL1        0.1630
      4 N          62.2967   86.8757   11.8234 N.ar    1  UNL1       -0.2278
      5 C          61.5144   87.9646   11.1508 C.ar    1  UNL1        0.0805
      6 N          62.8345   84.3165   11.2699 N.pl3   1  UNL1       -0.2830
      7 C          62.7034   83.7107   12.6357 C.3     1  UNL1        0.1247
      8 C          63.3375   82.3840   12.9317 C.3     1  UNL1        0.1636
      9 O          64.1029   81.6631   11.8618 O.3     1  UNL1       -0.3501
     10 C          64.2341   82.2691   10.4960 C.3     1  UNL1        0.1636
     11 C          63.5999   83.5957   10.2000 C.3     1  UNL1        0.1247
     12 N          60.3292   89.6062    8.6452 N.am    1  UNL1       -0.3249
     13 C          60.0806   88.1495    8.9024 C.2     1  UNL1        0.2500
     14 O          58.9781   87.4372    8.1764 O.2     1  UNL1       -0.2698
     15 H          59.7688   90.0948    7.9999 H       1  UNL1        0.1453
     16 H          61.0529   90.0737    9.1217 H       1  UNL1        0.1453
     17 C          61.3422   89.3668   11.6549 C.3     1  UNL1        0.1319
     18 C          62.4019   89.9903   12.5141 C.2     1  UNL1        0.2354
     19 O          62.4909   89.6381   13.9694 O.2     1  UNL1       -0.2741
     20 N          63.3726   90.9662   11.9180 N.am    1  UNL1       -0.2583
     21 C          63.4066   91.4131   10.4866 C.3     1  UNL1        0.1029
     22 C          64.5348   92.3896   10.3326 C.3     1  UNL1        0.0503
     23 C          65.1980   92.5463   11.6688 C.ar    1  UNL1        0.0038
     24 C          66.3631   93.3763   12.1199 C.ar    1  UNL1        0.0549
     25 CL         67.0814   94.2560   11.1401 Cl      1  UNL1       -0.0825
     26 C          66.8100   93.3265   13.5510 C.ar    1  UNL1        0.0112
     27 C          66.0917   92.4468   14.5309 C.ar    1  UNL1        0.0021
     28 C          64.9265   91.6168   14.0797 C.ar    1  UNL1        0.0146
     29 C          64.4797   91.6665   12.6487 C.ar    1  UNL1        0.0507
@<TRIPOS>BOND
     1    12    13   am
     2    13    14    2
     3    13     1    1
     4     1     2   ar
     5     2     3   ar
     6     3     6    1
     7     6     7    1
     8     7     8    1
     9     8     9    1
    10     9    10    1
    11    10    11    1
    12     3     4   ar
    13     4     5   ar
    14     5    17    1
    15    17    18    1
    16    18    19    2
    17    18    20   am
    18    20    21    1
    19    21    22    1
    20    22    23    1
    21    23    24   ar
    22    24    25    1
    23    24    26   ar
    24    26    27   ar
    25    27    28   ar
    26    28    29   ar
    27     5     1   ar
    28    29    20    1
    29    11     6    1
    30    29    23   ar
    31    12    15    1
    32    12    16    1
@<TRIPOS>MOLECULE
*****
 29 32 0 0 0
SMALL
GASTEIGER

@<TRIPOS>ATOM
      1 C          62.8988   88.9947   12.5136 C.ar    1  UNL1        0.0991
      2 S          62.0053   89.4044   11.3806 S.2     1  UNL1       -0.0473
      3 C          61.5997   88.1654   10.6387 C.ar    1  UNL1        0.1630
      4 N          62.2426   86.9899   11.3132 N.ar    1  UNL1       -0.2278
      5 C          63.0455   87.5025   12.4720 C.ar    1  UNL1        0.0805
      6 N          60.7078   88.1114    9.4339 N.pl3   1  UNL1       -0.2830
      7 C          60.1629   86.7958    8.9626 C.3     1  UNL1        0.1247
      8 C          59.2710   86.7418    7.7577 C.3     1  UNL1        0.1636
      9 O          58.9240   88.0035    7.0243 O.3     1  UNL1       -0.3501
     10 C          59.4690   89.3190    7.4957 C.3     1  UNL1        0.1636
     11 C          60.3608   89.3730    8.7005 C.3     1  UNL1        0.1247
     12 N          63.0337   89.9486   14.9265 N.am    1  UNL1       -0.3249
     13 C          63.5342   89.9155   13.5128 C.2     1  UNL1        0.2500
     14 O          64.6700   90.8033   13.0983 O.2     1  UNL1       -0.2698
     15 H          63.4507   90.5530   15.5823 H       1  UNL1        0.1453
     16 H          62.2882   89.3659   15.1985 H       1  UNL1        0.1453
     17 C          63.8533   86.6690   13.4222 C.3     1  UNL1        0.1319
     18 C          63.3674   85.3086   13.8260 C.2     1  UNL1        0.2354
     19 O          62.8548   85.0774   15.2165 O.2     1  UNL1       -0.2741
     20 N          63.3941   84.1793   12.8390 N.am    1  UNL1       -0.2583
     21 C          63.8761   84.2589   11.4209 C.3     1  UNL1        0.1029
     22 C          63.7233   82.9009   10.8024 C.3     1  UNL1        0.0503
     23 C          63.1469   81.9819   11.8383 C.ar    1  UNL1        0.0038
     24 C          62.7810   80.5278   11.7981 C.ar    1  UNL1        0.0549
     25 CL         62.9844   79.7377   10.5395 Cl      1  UNL1       -0.0825
     26 C          62.2116   79.8637   13.0167 C.ar    1  UNL1        0.0112
     27 C          62.0081   80.6538   14.2754 C.ar    1  UNL1        0.0021
     28 C          62.3740   82.1080   14.3156 C.ar    1  UNL1        0.0146
     29 C          62.9434   82.7721   13.0971 C.ar    1  UNL1        0.0507
@<TRIPOS>BOND
     1    12    13   am
     2    13    14    2
     3    13     1    1
     4     1     2   ar
     5     2     3   ar
     6     3     6    1
     7     6     7    1
     8     7     8    1
     9     8     9    1
    10     9    10    1
    11    10    11    1
    12     3     4   ar
    13     4     5   ar
    14     5    17    1
    15    17    18    1
    16    18    19    2
    17    18    20   am
    18    20    21    1
    19    21    22    1
    20    22    23    1
    21    23    24   ar
    22    24    25    1
    23    24    26   ar
    24    26    27   ar
    25    27    28   ar
    26    28    29   ar
    27     5     1   ar
    28    29    20    1
    29    11     6    1
    30    29    23   ar
    31    12    15    1
    32    12    16    1
@<TRIPOS>MOLECULE
*****
 29 32 0 0 0
SMALL
GASTEIGER

@<TRIPOS>ATOM
      1 C          64.0875   90.8033   13.7233 C.ar    1  UNL1        0.0991
      2 S          65.1546   91.8059   13.3977 S.2     1  UNL1       -0.0473
      3 C          65.1373   92.0367   11.9157 C.ar    1  UNL1        0.1630
      4 N          64.0594   91.1768   11.3253 N.ar    1  UNL1       -0.2278
      5 C          63.4106   90.4145   12.4424 C.ar    1  UNL1        0.0805
      6 N          66.0394   92.9646   11.1573 N.pl3   1  UNL1       -0.2830
      7 C          67.0971   92.4080   10.2511 C.3     1  UNL1        0.1247
      8 C          67.9992   93.3358    9.4927 C.3     1  UNL1        0.1636
      9 O          67.8437   94.8205    9.6405 O.3     1  UNL1       -0.3501
     10 C          66.7859   95.3771   10.5468 C.3     1  UNL1        0.1636
     11 C          65.8838   94.4492   11.3052 C.3     1  UNL1        0.1247
     12 N          63.5714   91.2350   16.2327 N.am    1  UNL1       -0.3249
     13 C          63.7556   90.2812   15.0898 C.2     1  UNL1        0.2500
     14 O          63.6078   88.8053   15.3132 O.2     1  UNL1       -0.2698
     15 H          63.3535   90.8923   17.1296 H       1  UNL1        0.1453
     16 H          63.6684   92.2036   16.0860 H       1  UNL1        0.1453
     17 C          62.2829   89.4353   12.3031 C.3     1  UNL1        0.1319
     18 C          62.4273   88.2491   11.3965 C.2     1  UNL1        0.2354
     19 O          62.0973   88.3747    9.9387 O.2     1  UNL1       -0.2741
     20 N          62.9018   86.9371   11.9478 N.am    1  UNL1       -0.2583
     21 C          63.2673   86.6614   13.3761 C.3     1  UNL1        0.1029
     22 C          63.6854   85.2245   13.4785 C.3     1  UNL1        0.0503
     23 C          63.5783   84.6121   12.1134 C.ar    1  UNL1        0.0038
     24 C          63.8591   83.2275   11.6096 C.ar    1  UNL1        0.0549
     25 CL         64.3434   82.1690   12.5556 Cl      1  UNL1       -0.0825
     26 C          63.6557   82.9013   10.1597 C.ar    1  UNL1        0.0112
     27 C          63.1714   83.9597    9.2136 C.ar    1  UNL1        0.0021
     28 C          62.8905   85.3445    9.7174 C.ar    1  UNL1        0.0146
     29 C          63.0939   85.6707   11.1673 C.ar    1  UNL1        0.0507
@<TRIPOS>BOND
     1    12    13   am
     2    13    14    2
     3    13     1    1
     4     1     2   ar
     5     2     3   ar
     6     3     6    1
     7     6     7    1
     8     7     8    1
     9     8     9    1
    10     9    10    1
    11    10    11    1
    12     3     4   ar
    13     4     5   ar
    14     5    17    1
    15    17    18    1
    16    18    19    2
    17    18    20   am
    18    20    21    1
    19    21    22    1
    20    22    23    1
    21    23    24   ar
    22    24    25    1
    23    24    26   ar
    24    26    27   ar
    25    27    28   ar
    26    28    29   ar
    27     5     1   ar
    28    29    20    1
    29    11     6    1
    30    29    23   ar
    31    12    15    1
    32    12    16    1
@<TRIPOS>MOLECULE
*****
 29 32 0 0 0
SMALL
GASTEIGER

@<TRIPOS>ATOM
      1 C          62.8237   90.9347   10.9680 C.ar    1  UNL1        0.0991
      2 S          63.7203   91.7737   10.1065 S.2     1  UNL1       -0.0473
      3 C          64.9502   92.1026   10.8996 C.ar    1  UNL1        0.1630
      4 N          64.8138   91.4670   12.2514 N.ar    1  UNL1       -0.2278
      5 C          63.4995   90.7452   12.2937 C.ar    1  UNL1        0.0805
      6 N          66.1125   92.9231   10.4244 N.pl3   1  UNL1       -0.2830
      7 C          66.0272   94.4206   10.4339 C.3     1  UNL1        0.1247
      8 C          67.1895   95.2411    9.9587 C.3     1  UNL1        0.1636
      9 O          68.4372   94.5640    9.4740 O.3     1  UNL1       -0.3501
     10 C          68.5225   93.0665    9.4645 C.3     1  UNL1        0.1636
     11 C          67.3602   92.2461    9.9397 C.3     1  UNL1        0.1247
     12 N          60.2705   90.7053   11.3904 N.am    1  UNL1       -0.3249
     13 C          61.4862   90.3824   10.5732 C.2     1  UNL1        0.2500
     14 O          61.3643   89.5069    9.3612 O.2     1  UNL1       -0.2698
     15 H          59.3926   90.3428   11.1313 H       1  UNL1        0.1453
     16 H          60.3505   91.2799   12.1858 H       1  UNL1        0.1453
     17 C          62.9564   89.9700   13.4573 C.3     1  UNL1        0.1319
     18 C          63.5681   88.6526   13.8320 C.2     1  UNL1        0.2354
     19 O          64.5262   88.5709   14.9832 O.2     1  UNL1       -0.2741
     20 N          63.2216   87.4169   13.0554 N.am    1  UNL1       -0.2583
     21 C          62.2848   87.3441   11.8863 C.3     1  UNL1        0.1029
     22 C          62.2354   85.9193   11.4200 C.3     1  UNL1        0.0503
     23 C          63.1417   85.1115   12.3009 C.ar    1  UNL1        0.0038
     24 C          63.4907   83.6527   12.3133 C.ar    1  UNL1        0.0549
     25 CL         62.8811   82.7271   11.3026 Cl      1  UNL1       -0.0825
     26 C          64.4492   83.1195   13.3365 C.ar    1  UNL1        0.0112
     27 C          65.0588   84.0451   14.3472 C.ar    1  UNL1        0.0021
     28 C          64.7098   85.5040   14.3349 C.ar    1  UNL1        0.0146
     29 C          63.7512   86.0372   13.3117 C.ar    1  UNL1        0.0507
@<TRIPOS>BOND
     1    12    13   am
     2    13    14    2
     3    13     1    1
     4     1     2   ar
     5     2     3   ar
     6     3     6    1
     7     6     7    1
     8     7     8    1
     9     8     9    1
    10     9    10    1
    11    10    11    1
    12     3     4   ar
    13     4     5   ar
    14     5    17    1
    15    17    18    1
    16    18    19    2
    17    18    20   am
    18    20    21    1
    19    21    22    1
    20    22    23    1
    21    23    24   ar
    22    24    25    1
    23    24    26   ar
    24    26    27   ar
    25    27    28   ar
    26    28    29   ar
    27     5     1   ar
    28    29    20    1
    29    11     6    1
    30    29    23   ar
    31    12    15    1
    32    12    16    1
@<TRIPOS>MOLECULE
*****
 29 32 0 0 0
SMALL
GASTEIGER

@<TRIPOS>ATOM
      1 C          61.0787   89.9800   11.3986 C.ar    1  UNL1        0.0991
      2 S          62.0184   90.9803   12.0039 S.2     1  UNL1       -0.0473
      3 C          63.3612   90.8044   11.3588 C.ar    1  UNL1        0.1630
      4 N          63.2513   89.6955   10.3548 N.ar    1  UNL1       -0.2278
      5 C          61.8407   89.1860   10.3794 C.ar    1  UNL1        0.0805
      6 N          64.5967   91.5982   11.6642 N.pl3   1  UNL1       -0.2830
      7 C          65.2743   92.3789   10.5773 C.3     1  UNL1        0.1247
      8 C          66.5099   93.1726   10.8827 C.3     1  UNL1        0.1636
      9 O          67.0680   93.1857   12.2750 O.3     1  UNL1       -0.3501
     10 C          66.3903   92.4049   13.3619 C.3     1  UNL1        0.1636
     11 C          65.1548   91.6112   13.0565 C.3     1  UNL1        0.1247
     12 N          59.1497   88.5020   12.3174 N.am    1  UNL1       -0.3249
     13 C          59.6312   89.8046   11.7507 C.2     1  UNL1        0.2500
     14 O          58.6652   90.9320   11.5361 O.2     1  UNL1       -0.2698
     15 H          58.1996   88.3869   12.5484 H       1  UNL1        0.1453
     16 H          59.7837   87.7621   12.4582 H       1  UNL1        0.1453
     17 C          61.2889   88.0771    9.5333 C.3     1  UNL1        0.1319
     18 C          61.9995   86.7576    9.4696 C.2     1  UNL1        0.2354
     19 O          62.3691   86.1681    8.1407 O.2     1  UNL1       -0.2741
     20 N          62.3406   86.0276   10.7348 N.am    1  UNL1       -0.2583
     21 C          62.0365   86.4901   12.1289 C.3     1  UNL1        0.1029
     22 C          62.5536   85.4552   13.0837 C.3     1  UNL1        0.0503
     23 C          63.1772   84.3531   12.2798 C.ar    1  UNL1        0.0038
     24 C          63.8479   83.0731   12.6820 C.ar    1  UNL1        0.0549
     25 CL         63.9796   82.7194   14.1337 Cl      1  UNL1       -0.0825
     26 C          64.3870   82.1469   11.6325 C.ar    1  UNL1        0.0112
     27 C          64.2554   82.5006   10.1807 C.ar    1  UNL1        0.0021
     28 C          63.5846   83.7806    9.7785 C.ar    1  UNL1        0.0146
     29 C          63.0455   84.7069   10.8280 C.ar    1  UNL1        0.0507
@<TRIPOS>BOND
     1    12    13   am
     2    13    14    2
     3    13     1    1
     4     1     2   ar
     5     2     3   ar
     6     3     6    1
     7     6     7    1
     8     7     8    1
     9     8     9    1
    10     9    10    1
    11    10    11    1
    12     3     4   ar
    13     4     5   ar
    14     5    17    1
    15    17    18    1
    16    18    19    2
    17    18    20   am
    18    20    21    1
    19    21    22    1
    20    22    23    1
    21    23    24   ar
    22    24    25    1
    23    24    26   ar
    24    26    27   ar
    25    27    28   ar
    26    28    29   ar
    27     5     1   ar
    28    29    20    1
    29    11     6    1
    30    29    23   ar
    31    12    15    1
    32    12    16    1
