@<TRIPOS>MOLECULE
*****
 29 32 0 0 0
SMALL
GASTEIGER

@<TRIPOS>ATOM
      1 O          61.9207   85.2459   11.4486 O.2     1  UNL1       -0.2505
      2 C          62.7904   85.9033   12.4789 C.2     1  UNL1        0.3269
      3 N          63.4216   85.0807   13.5628 N.am    1  UNL1       -0.2668
      4 N          63.0288   87.3833   12.4253 N.am    1  UNL1       -0.1624
      5 N          63.8701   88.1759   13.3814 N.2     1  UNL1       -0.1786
      6 C          63.8291   89.6130   12.9532 C.2     1  UNL1        0.0787
      7 C          62.9625   89.7084   11.7325 C.3     1  UNL1        0.0738
      8 C          62.4680   88.3303   11.4063 C.3     1  UNL1        0.1288
      9 H          63.9924   85.5121   14.2390 H       1  UNL1        0.1565
     10 C          63.1832   83.6007   13.6164 C.ar    1  UNL1        0.0518
     11 C          64.1350   82.6625   12.9354 C.ar    1  UNL1        0.0170
     12 C          63.8965   81.1826   12.9891 C.ar    1  UNL1        0.0309
     13 C          62.7062   80.6408   13.7237 C.ar    1  UNL1        0.1402
     14 F          62.4678   79.1608   13.7774 F       1  UNL1       -0.2042
     15 C          61.7544   81.5790   14.4048 C.ar    1  UNL1        0.0309
     16 C          61.9929   83.0589   14.3511 C.ar    1  UNL1        0.0170
     17 C          61.5702   87.9637   10.2620 C.ar    1  UNL1       -0.0018
     18 C          62.0362   86.9826    9.2275 C.ar    1  UNL1       -0.0003
     19 C          61.1384   86.6160    8.0832 C.ar    1  UNL1        0.0294
     20 C          59.7744   87.2305    7.9733 C.ar    1  UNL1        0.1401
     21 F          58.8766   86.8639    6.8290 F       1  UNL1       -0.2042
     22 C          59.3083   88.2116    9.0078 C.ar    1  UNL1        0.0294
     23 C          60.2062   88.5782   10.1521 C.ar    1  UNL1       -0.0003
     24 C          64.5313   90.7542   13.6273 C.ar    1  UNL1        0.0182
     25 C          65.2860   91.7593   12.8085 C.ar    1  UNL1        0.0219
     26 C          65.9882   92.9005   13.4826 C.ar    1  UNL1        0.0989
     27 N          65.9358   93.0366   14.9755 N.ar    1  UNL1       -0.2423
     28 C          65.1812   92.0315   15.7943 C.ar    1  UNL1        0.0989
     29 C          64.4789   90.8903   15.1202 C.ar    1  UNL1        0.0219
@<TRIPOS>BOND
     1     1     2    2
     2     2     3   am
     3     3    10    1
     4    10    11   ar
     5    11    12   ar
     6    12    13   ar
     7    13    14    1
     8    13    15   ar
     9    15    16   ar
    10     2     4   am
    11     4     5    1
    12     5     6    2
    13     6    24    1
    14    24    25   ar
    15    25    26   ar
    16    26    27   ar
    17    27    28   ar
    18    28    29   ar
    19     6     7    1
    20     7     8    1
    21     8    17    1
    22    17    18   ar
    23    18    19   ar
    24    19    20   ar
    25    20    21    1
    26    20    22   ar
    27    22    23   ar
    28    16    10   ar
    29     8     4    1
    30    23    17   ar
    31    29    24   ar
    32     3     9    1
@<TRIPOS>MOLECULE
*****
 29 32 0 0 0
SMALL
GASTEIGER

@<TRIPOS>ATOM
      1 O          62.2681   88.9857   11.9277 O.2     1  UNL1       -0.2505
      2 C          62.7397   90.0133   10.9419 C.2     1  UNL1        0.3269
      3 N          62.2170   89.9994    9.5361 N.am    1  UNL1       -0.2668
      4 N          63.7342   91.0548   11.3621 N.am    1  UNL1       -0.1624
      5 N          64.2947   92.1404   10.4919 N.2     1  UNL1       -0.1786
      6 C          65.2496   92.9501   11.3181 C.2     1  UNL1        0.0787
      7 C          65.2792   92.3648   12.6990 C.3     1  UNL1        0.0738
      8 C          64.3426   91.1935   12.7261 C.3     1  UNL1        0.1288
      9 H          62.5265   90.6738    8.8891 H       1  UNL1        0.1565
     10 C          61.2225   88.9579    9.1159 C.ar    1  UNL1        0.0518
     11 C          61.4444   87.5194    9.4787 C.ar    1  UNL1        0.0170
     12 C          60.4500   86.4780    9.0585 C.ar    1  UNL1        0.0309
     13 C          59.2337   86.8751    8.2756 C.ar    1  UNL1        0.1402
     14 F          58.2393   85.8336    7.8554 F       1  UNL1       -0.2042
     15 C          59.0118   88.3135    7.9128 C.ar    1  UNL1        0.0309
     16 C          60.0062   89.3549    8.3330 C.ar    1  UNL1        0.0170
     17 C          64.0634   90.3151   13.9095 C.ar    1  UNL1       -0.0018
     18 C          63.5214   90.9111   15.1748 C.ar    1  UNL1       -0.0003
     19 C          63.2423   90.0326   16.3581 C.ar    1  UNL1        0.0294
     20 C          63.5050   88.5580   16.2762 C.ar    1  UNL1        0.1401
     21 F          63.2257   87.6796   17.4595 F       1  UNL1       -0.2042
     22 C          64.0469   87.9620   15.0108 C.ar    1  UNL1        0.0294
     23 C          64.3261   88.8405   13.8275 C.ar    1  UNL1       -0.0003
     24 C          66.0367   94.1366   10.8464 C.ar    1  UNL1        0.0182
     25 C          65.8896   95.4583   11.5404 C.ar    1  UNL1        0.0219
     26 C          66.6767   96.6448   11.0687 C.ar    1  UNL1        0.0989
     27 N          67.6109   96.5097    9.9030 N.ar    1  UNL1       -0.2423
     28 C          67.7581   95.1880    9.2090 C.ar    1  UNL1        0.0989
     29 C          66.9710   94.0015    9.6807 C.ar    1  UNL1        0.0219
@<TRIPOS>BOND
     1     1     2    2
     2     2     3   am
     3     3    10    1
     4    10    11   ar
     5    11    12   ar
     6    12    13   ar
     7    13    14    1
     8    13    15   ar
     9    15    16   ar
    10     2     4   am
    11     4     5    1
    12     5     6    2
    13     6    24    1
    14    24    25   ar
    15    25    26   ar
    16    26    27   ar
    17    27    28   ar
    18    28    29   ar
    19     6     7    1
    20     7     8    1
    21     8    17    1
    22    17    18   ar
    23    18    19   ar
    24    19    20   ar
    25    20    21    1
    26    20    22   ar
    27    22    23   ar
    28    16    10   ar
    29     8     4    1
    30    23    17   ar
    31    29    24   ar
    32     3     9    1
@<TRIPOS>MOLECULE
*****
 29 32 0 0 0
SMALL
GASTEIGER

@<TRIPOS>ATOM
      1 O          62.4377   88.5979   12.7292 O.2     1  UNL1       -0.2505
      2 C          63.5068   89.6157   12.9960 C.2     1  UNL1        0.3269
      3 N          64.2162   89.6294   14.3175 N.am    1  UNL1       -0.2668
      4 N          63.8664   90.6198   11.9412 N.am    1  UNL1       -0.1624
      5 N          64.9085   91.6917   12.0632 N.2     1  UNL1       -0.1786
      6 C          64.9332   92.4627   10.7766 C.2     1  UNL1        0.0787
      7 C          63.9064   91.8671    9.8596 C.3     1  UNL1        0.0738
      8 C          63.2471   90.7281   10.5793 C.3     1  UNL1        0.1288
      9 H          64.9178   90.2975   14.4926 H       1  UNL1        0.1565
     10 C          63.8566   88.6253   15.3723 C.ar    1  UNL1        0.0518
     11 C          63.1752   89.0720   16.6318 C.ar    1  UNL1        0.0170
     12 C          62.8156   88.0679   17.6865 C.ar    1  UNL1        0.0309
     13 C          63.1374   86.6172   17.4818 C.ar    1  UNL1        0.1402
     14 F          62.7778   85.6131   18.5366 F       1  UNL1       -0.2042
     15 C          63.8187   86.1706   16.2224 C.ar    1  UNL1        0.0309
     16 C          64.1783   87.1746   15.1676 C.ar    1  UNL1        0.0170
     17 C          62.1594   89.8514   10.0332 C.ar    1  UNL1       -0.0018
     18 C          60.7745   90.3986    9.8530 C.ar    1  UNL1       -0.0003
     19 C          59.6868   89.5218    9.3068 C.ar    1  UNL1        0.0294
     20 C          59.9841   88.0978    8.9408 C.ar    1  UNL1        0.1401
     21 F          58.8964   87.2211    8.3946 F       1  UNL1       -0.2042
     22 C          61.3691   87.5506    9.1210 C.ar    1  UNL1        0.0294
     23 C          62.4567   88.4274    9.6671 C.ar    1  UNL1       -0.0003
     24 C          65.8277   93.6250   10.4623 C.ar    1  UNL1        0.0182
     25 C          65.5215   94.9810   11.0261 C.ar    1  UNL1        0.0219
     26 C          66.4160   96.1433   10.7118 C.ar    1  UNL1        0.0989
     27 N          67.6167   95.9498    9.8338 N.ar    1  UNL1       -0.2423
     28 C          67.9229   94.5938    9.2700 C.ar    1  UNL1        0.0989
     29 C          67.0284   93.4315    9.5843 C.ar    1  UNL1        0.0219
@<TRIPOS>BOND
     1     1     2    2
     2     2     3   am
     3     3    10    1
     4    10    11   ar
     5    11    12   ar
     6    12    13   ar
     7    13    14    1
     8    13    15   ar
     9    15    16   ar
    10     2     4   am
    11     4     5    1
    12     5     6    2
    13     6    24    1
    14    24    25   ar
    15    25    26   ar
    16    26    27   ar
    17    27    28   ar
    18    28    29   ar
    19     6     7    1
    20     7     8    1
    21     8    17    1
    22    17    18   ar
    23    18    19   ar
    24    19    20   ar
    25    20    21    1
    26    20    22   ar
    27    22    23   ar
    28    16    10   ar
    29     8     4    1
    30    23    17   ar
    31    29    24   ar
    32     3     9    1
@<TRIPOS>MOLECULE
*****
 29 32 0 0 0
SMALL
GASTEIGER

@<TRIPOS>ATOM
      1 O          62.5820   84.2153   10.9596 O.2     1  UNL1       -0.2505
      2 C          62.7358   85.7038   11.0625 C.2     1  UNL1        0.3269
      3 N          62.4727   86.5694    9.8660 N.am    1  UNL1       -0.2668
      4 N          63.1527   86.3267   12.3618 N.am    1  UNL1       -0.1624
      5 N          63.3467   87.7925   12.6146 N.2     1  UNL1       -0.1786
      6 C          63.7628   87.9649   14.0455 C.2     1  UNL1        0.0787
      7 C          63.8259   86.6057   14.6769 C.3     1  UNL1        0.0738
      8 C          63.4488   85.5933   13.6363 C.3     1  UNL1        0.1288
      9 H          62.5737   87.5464    9.9336 H       1  UNL1        0.1565
     10 C          62.0558   85.9465    8.5667 C.ar    1  UNL1        0.0518
     11 C          60.6471   86.1055    8.0767 C.ar    1  UNL1        0.0170
     12 C          60.2302   85.4826    6.7774 C.ar    1  UNL1        0.0309
     13 C          61.2221   84.7007    5.9681 C.ar    1  UNL1        0.1402
     14 F          60.8051   84.0778    4.6688 F       1  UNL1       -0.2042
     15 C          62.6308   84.5418    6.4582 C.ar    1  UNL1        0.0309
     16 C          63.0476   85.1646    7.7575 C.ar    1  UNL1        0.0170
     17 C          63.3800   84.1082   13.8352 C.ar    1  UNL1       -0.0018
     18 C          64.5384   83.2433   13.4352 C.ar    1  UNL1       -0.0003
     19 C          64.4694   81.7582   13.6341 C.ar    1  UNL1        0.0294
     20 C          63.2421   81.1378   14.2331 C.ar    1  UNL1        0.1401
     21 F          63.1732   79.6527   14.4321 F       1  UNL1       -0.2042
     22 C          62.0837   82.0027   14.6332 C.ar    1  UNL1        0.0294
     23 C          62.1526   83.4878   14.4342 C.ar    1  UNL1       -0.0003
     24 C          64.0630   89.2678   14.7255 C.ar    1  UNL1        0.0182
     25 C          65.0600   90.2146   14.1258 C.ar    1  UNL1        0.0219
     26 C          65.3602   91.5174   14.8059 C.ar    1  UNL1        0.0989
     27 N          64.6634   91.8735   16.0856 N.ar    1  UNL1       -0.2423
     28 C          63.6664   90.9267   16.6852 C.ar    1  UNL1        0.0989
     29 C          63.3662   89.6239   16.0052 C.ar    1  UNL1        0.0219
@<TRIPOS>BOND
     1     1     2    2
     2     2     3   am
     3     3    10    1
     4    10    11   ar
     5    11    12   ar
     6    12    13   ar
     7    13    14    1
     8    13    15   ar
     9    15    16   ar
    10     2     4   am
    11     4     5    1
    12     5     6    2
    13     6    24    1
    14    24    25   ar
    15    25    26   ar
    16    26    27   ar
    17    27    28   ar
    18    28    29   ar
    19     6     7    1
    20     7     8    1
    21     8    17    1
    22    17    18   ar
    23    18    19   ar
    24    19    20   ar
    25    20    21    1
    26    20    22   ar
    27    22    23   ar
    28    16    10   ar
    29     8     4    1
    30    23    17   ar
    31    29    24   ar
    32     3     9    1
@<TRIPOS>MOLECULE
*****
 29 32 0 0 0
SMALL
GASTEIGER

@<TRIPOS>ATOM
      1 O          62.3388   87.0022   12.2321 O.2     1  UNL1       -0.2505
      2 C          62.8610   88.3817   11.9596 C.2     1  UNL1        0.3269
      3 N          62.4607   89.1011   10.7057 N.am    1  UNL1       -0.2668
      4 N          63.7836   89.0419   12.9410 N.am    1  UNL1       -0.1624
      5 N          64.3827   90.4103   12.8048 N.2     1  UNL1       -0.1786
      6 C          65.2384   90.6636   14.0106 C.2     1  UNL1        0.0787
      7 C          65.1680   89.4518   14.8919 C.3     1  UNL1        0.0738
      8 C          64.2689   88.4495   14.2308 C.3     1  UNL1        0.1288
      9 H          62.8035   90.0065   10.5269 H       1  UNL1        0.1565
     10 C          61.5382   88.4410    9.7242 C.ar    1  UNL1        0.0518
     11 C          61.7300   86.9963    9.3694 C.ar    1  UNL1        0.0170
     12 C          60.8074   86.3362    8.3880 C.ar    1  UNL1        0.0309
     13 C          59.6931   87.1209    7.7614 C.ar    1  UNL1        0.1402
     14 F          58.7705   86.4607    6.7800 F       1  UNL1       -0.2042
     15 C          59.5013   88.5656    8.1163 C.ar    1  UNL1        0.0309
     16 C          60.4238   89.2256    9.0977 C.ar    1  UNL1        0.0170
     17 C          63.9168   87.0931   14.7656 C.ar    1  UNL1       -0.0018
     18 C          64.2328   85.8655   13.9637 C.ar    1  UNL1       -0.0003
     19 C          63.8807   84.5091   14.4985 C.ar    1  UNL1        0.0294
     20 C          63.2127   84.3801   15.8354 C.ar    1  UNL1        0.1401
     21 F          62.8606   83.0237   16.3702 F       1  UNL1       -0.2042
     22 C          62.8967   85.6077   16.6374 C.ar    1  UNL1        0.0294
     23 C          63.2488   86.9642   16.1025 C.ar    1  UNL1       -0.0003
     24 C          66.0261   91.9100   14.2866 C.ar    1  UNL1        0.0182
     25 C          66.8704   92.0053   15.5228 C.ar    1  UNL1        0.0219
     26 C          67.6581   93.2516   15.7988 C.ar    1  UNL1        0.0989
     27 N          67.6015   94.4026   14.8385 N.ar    1  UNL1       -0.2423
     28 C          66.7573   94.3072   13.6023 C.ar    1  UNL1        0.0989
     29 C          65.9696   93.0609   13.3264 C.ar    1  UNL1        0.0219
@<TRIPOS>BOND
     1     1     2    2
     2     2     3   am
     3     3    10    1
     4    10    11   ar
     5    11    12   ar
     6    12    13   ar
     7    13    14    1
     8    13    15   ar
     9    15    16   ar
    10     2     4   am
    11     4     5    1
    12     5     6    2
    13     6    24    1
    14    24    25   ar
    15    25    26   ar
    16    26    27   ar
    17    27    28   ar
    18    28    29   ar
    19     6     7    1
    20     7     8    1
    21     8    17    1
    22    17    18   ar
    23    18    19   ar
    24    19    20   ar
    25    20    21    1
    26    20    22   ar
    27    22    23   ar
    28    16    10   ar
    29     8     4    1
    30    23    17   ar
    31    29    24   ar
    32     3     9    1
@<TRIPOS>MOLECULE
*****
 29 32 0 0 0
SMALL
GASTEIGER

@<TRIPOS>ATOM
      1 O          64.6229   88.1614   14.2035 O.2     1  UNL1       -0.2505
      2 C          63.8908   88.9013   13.1234 C.2     1  UNL1        0.3269
      3 N          64.0678   90.3836   12.9772 N.am    1  UNL1       -0.2668
      4 N          62.9817   88.1588   12.1894 N.am    1  UNL1       -0.1624
      5 N          62.1881   88.7605   11.0676 N.2     1  UNL1       -0.1786
      6 C          61.4224   87.6579   10.3981 C.2     1  UNL1        0.0787
      7 C          61.7429   86.3748   11.1061 C.3     1  UNL1        0.0738
      8 C          62.7065   86.6845   12.2131 C.3     1  UNL1        0.1288
      9 H          63.5873   90.8692   12.2683 H       1  UNL1        0.1565
     10 C          64.9770   91.1261   13.9112 C.ar    1  UNL1        0.0518
     11 C          64.5293   91.4295   15.3103 C.ar    1  UNL1        0.0170
     12 C          65.4384   92.1720   16.2442 C.ar    1  UNL1        0.0309
     13 C          66.7952   92.6109   15.7790 C.ar    1  UNL1        0.1402
     14 F          67.7044   93.3534   16.7130 F       1  UNL1       -0.2042
     15 C          67.2429   92.3075   14.3800 C.ar    1  UNL1        0.0309
     16 C          66.3338   91.5650   13.4461 C.ar    1  UNL1        0.0170
     17 C          63.2923   85.6937   13.1751 C.ar    1  UNL1       -0.0018
     18 C          63.2828   85.9818   14.6471 C.ar    1  UNL1       -0.0003
     19 C          63.8685   84.9910   15.6090 C.ar    1  UNL1        0.0294
     20 C          64.4638   83.7121   15.0989 C.ar    1  UNL1        0.1401
     21 F          65.0495   82.7214   16.0608 F       1  UNL1       -0.2042
     22 C          64.4732   83.4240   13.6268 C.ar    1  UNL1        0.0294
     23 C          63.8875   84.4148   12.6650 C.ar    1  UNL1       -0.0003
     24 C          60.4986   87.8114    9.2264 C.ar    1  UNL1        0.0182
     25 C          60.2621   89.1674    8.6303 C.ar    1  UNL1        0.0219
     26 C          59.3383   89.3209    7.4586 C.ar    1  UNL1        0.0989
     27 N          58.6510   88.1183    6.8829 N.ar    1  UNL1       -0.2423
     28 C          58.8874   86.7623    7.4790 C.ar    1  UNL1        0.0989
     29 C          59.8113   86.6088    8.6507 C.ar    1  UNL1        0.0219
@<TRIPOS>BOND
     1     1     2    2
     2     2     3   am
     3     3    10    1
     4    10    11   ar
     5    11    12   ar
     6    12    13   ar
     7    13    14    1
     8    13    15   ar
     9    15    16   ar
    10     2     4   am
    11     4     5    1
    12     5     6    2
    13     6    24    1
    14    24    25   ar
    15    25    26   ar
    16    26    27   ar
    17    27    28   ar
    18    28    29   ar
    19     6     7    1
    20     7     8    1
    21     8    17    1
    22    17    18   ar
    23    18    19   ar
    24    19    20   ar
    25    20    21    1
    26    20    22   ar
    27    22    23   ar
    28    16    10   ar
    29     8     4    1
    30    23    17   ar
    31    29    24   ar
    32     3     9    1
