@<TRIPOS>MOLECULE
*****
 39 43 0 0 0
SMALL
GASTEIGER

@<TRIPOS>ATOM
      1 N          63.5168   85.9182   12.8160 N.ar    1  UNL1       -0.3063
      2 C          62.8866   85.0732   11.7488 C.ar    1  UNL1        0.1240
      3 C          62.2215   85.9892   10.7647 C.ar    1  UNL1        0.1156
      4 C          62.4406   87.4004   11.2237 C.ar    1  UNL1        0.0966
      5 C          63.2412   87.3564   12.4914 C.ar    1  UNL1        0.1349
      6 C          63.6157   88.6318   13.1865 C.ar    1  UNL1        0.2819
      7 O          64.4162   88.5879   14.4543 O.2     1  UNL1       -0.2652
      8 N          63.1897   89.9511   12.6138 N.ar    1  UNL1       -0.2417
      9 C          62.3892   89.9950   11.3460 C.ar    1  UNL1        0.3342
     10 O          61.9632   91.3143   10.7733 O.2     1  UNL1       -0.2462
     11 N          62.0147   88.7197   10.6510 N.ar    1  UNL1       -0.2770
     12 C          61.2141   88.7636    9.3832 C.3     1  UNL1        0.1351
     13 N          62.9163   83.5751   11.6782 N.pl3   1  UNL1       -0.2926
     14 C          63.5481   82.8921   10.5016 C.3     1  UNL1        0.0922
     15 C          63.5778   81.3941   10.4310 C.3     1  UNL1        0.0229
     16 C          62.9757   80.5791   11.5370 C.3     1  UNL1        0.0190
     17 C          62.3440   81.2620   12.7136 C.3     1  UNL1        0.0709
     18 N          61.7420   80.4470   13.8196 N.3     1  UNL1       -0.3208
     19 C          62.3143   82.7600   12.7842 C.3     1  UNL1        0.1075
     20 H          61.8503   79.4549   13.6086 H       1  UNL1        0.1189
     21 H          60.7504   80.6700   13.9053 H       1  UNL1        0.1189
     22 C          61.4694   85.5681    9.5372 C.1     1  UNL1        0.1047
     23 N          60.7171   85.1470    8.3096 N.1     1  UNL1       -0.1907
     24 C          64.2873   85.4135   13.9999 C.3     1  UNL1        0.1332
     25 C          62.8556   86.2096   17.6147 C.3     1  UNL1        0.0261
     26 C          63.0367   85.5657   16.2720 C.2     1  UNL1       -0.0460
     27 C          62.1480   84.4300   15.8590 C.3     1  UNL1        0.0261
     28 C          64.1063   86.0574   15.3425 C.2     1  UNL1       -0.0102
     29 C          63.5643   91.2265   13.3089 C.3     1  UNL1        0.1593
     30 C          64.8332   91.9366   12.9407 C.ar    1  UNL1        0.0821
     31 N          65.1259   92.2528   11.5039 N.ar    1  UNL1       -0.2462
     32 C          66.3948   92.9629   11.1357 C.ar    1  UNL1        0.0985
     33 C          67.3710   93.3569   12.2043 C.ar    1  UNL1        0.0207
     34 C          67.0782   93.0408   13.6411 C.ar    1  UNL1        0.0027
     35 C          68.0544   93.4348   14.7097 C.ar    1  UNL1        0.0001
     36 C          67.7616   93.1186   16.1464 C.ar    1  UNL1        0.0000
     37 C          66.4927   92.4085   16.5146 C.ar    1  UNL1        0.0000
     38 C          65.5166   92.0145   15.4461 C.ar    1  UNL1        0.0012
     39 C          65.8093   92.3306   14.0093 C.ar    1  UNL1        0.0155
@<TRIPOS>BOND
     1    25    26    1
     2    26    27    1
     3    26    28    2
     4    28    24    1
     5    24     1    1
     6     1     2   ar
     7     2    13    1
     8    13    14    1
     9    14    15    1
    10    15    16    1
    11    16    17    1
    12    17    18    1
    13    17    19    1
    14     2     3   ar
    15     3    22    1
    16    22    23    3
    17     3     4   ar
    18     4     5   ar
    19     5     6   ar
    20     6     7    2
    21     6     8   ar
    22     8    29    1
    23    29    30    1
    24    30    31   ar
    25    31    32   ar
    26    32    33   ar
    27    33    34   ar
    28    34    35   ar
    29    35    36   ar
    30    36    37   ar
    31    37    38   ar
    32    38    39   ar
    33     8     9   ar
    34     9    10    2
    35     9    11   ar
    36    11    12    1
    37     5     1   ar
    38    39    30   ar
    39    19    13    1
    40    11     4   ar
    41    39    34   ar
    42    18    20    1
    43    18    21    1
@<TRIPOS>MOLECULE
*****
 39 43 0 0 0
SMALL
GASTEIGER

@<TRIPOS>ATOM
      1 N          63.6101   86.0800   13.2024 N.ar    1  UNL1       -0.3063
      2 C          62.9397   85.2453   12.1517 C.ar    1  UNL1        0.1240
      3 C          62.3112   86.1727   11.1542 C.ar    1  UNL1        0.1156
      4 C          62.5931   87.5805   11.5885 C.ar    1  UNL1        0.0966
      5 C          63.3959   87.5232   12.8543 C.ar    1  UNL1        0.1349
      6 C          63.8281   88.7926   13.5264 C.ar    1  UNL1        0.2819
      7 O          64.6309   88.7353   14.7922 O.2     1  UNL1       -0.2652
      8 N          63.4576   90.1194   12.9328 N.ar    1  UNL1       -0.2417
      9 C          62.6548   90.1767   11.6669 C.ar    1  UNL1        0.3342
     10 O          62.2842   91.5034   11.0732 O.2     1  UNL1       -0.2462
     11 N          62.2226   88.9073   10.9948 N.ar    1  UNL1       -0.2770
     12 C          61.4198   88.9646    9.7290 C.3     1  UNL1        0.1351
     13 N          62.9042   83.7464   12.1064 N.pl3   1  UNL1       -0.2926
     14 C          63.3405   83.0229   10.8670 C.3     1  UNL1        0.0922
     15 C          63.3049   81.5240   10.8218 C.3     1  UNL1        0.0229
     16 C          62.8330   80.7486   12.0159 C.3     1  UNL1        0.0190
     17 C          62.3967   81.4721   13.2554 C.3     1  UNL1        0.0709
     18 N          61.9248   80.6967   14.4495 N.3     1  UNL1       -0.3208
     19 C          62.4323   82.9710   13.3006 C.3     1  UNL1        0.1075
     20 H          61.9661   79.6984   14.2447 H       1  UNL1        0.1189
     21 H          60.9636   80.9596   14.6675 H       1  UNL1        0.1189
     22 C          61.5368   85.7641    9.9364 C.1     1  UNL1        0.1047
     23 N          60.7622   85.3554    8.7185 N.1     1  UNL1       -0.1907
     24 C          64.3626   85.5623   14.3922 C.3     1  UNL1        0.1332
     25 C          62.7497   86.3771   17.9256 C.3     1  UNL1        0.0261
     26 C          62.9676   85.7623   16.5749 C.2     1  UNL1       -0.0460
     27 C          62.0081   84.7325   16.0561 C.3     1  UNL1        0.0261
     28 C          64.1447   86.1771   15.7430 C.2     1  UNL1       -0.0102
     29 C          63.8897   91.3888   13.6049 C.3     1  UNL1        0.1593
     30 C          65.3495   91.6790   13.7919 C.ar    1  UNL1        0.0821
     31 N          65.9526   91.6370   15.1646 N.ar    1  UNL1       -0.2462
     32 C          67.4123   91.9272   15.3517 C.ar    1  UNL1        0.0985
     33 C          68.2689   92.2594   14.1660 C.ar    1  UNL1        0.0207
     34 C          67.6658   92.3015   12.7932 C.ar    1  UNL1        0.0027
     35 C          68.5223   92.6337   11.6075 C.ar    1  UNL1        0.0001
     36 C          67.9192   92.6757   10.2348 C.ar    1  UNL1        0.0000
     37 C          66.4595   92.3854   10.0478 C.ar    1  UNL1        0.0000
     38 C          65.6029   92.0532   11.2334 C.ar    1  UNL1        0.0012
     39 C          66.2060   92.0112   12.6062 C.ar    1  UNL1        0.0155
@<TRIPOS>BOND
     1    25    26    1
     2    26    27    1
     3    26    28    2
     4    28    24    1
     5    24     1    1
     6     1     2   ar
     7     2    13    1
     8    13    14    1
     9    14    15    1
    10    15    16    1
    11    16    17    1
    12    17    18    1
    13    17    19    1
    14     2     3   ar
    15     3    22    1
    16    22    23    3
    17     3     4   ar
    18     4     5   ar
    19     5     6   ar
    20     6     7    2
    21     6     8   ar
    22     8    29    1
    23    29    30    1
    24    30    31   ar
    25    31    32   ar
    26    32    33   ar
    27    33    34   ar
    28    34    35   ar
    29    35    36   ar
    30    36    37   ar
    31    37    38   ar
    32    38    39   ar
    33     8     9   ar
    34     9    10    2
    35     9    11   ar
    36    11    12    1
    37     5     1   ar
    38    39    30   ar
    39    19    13    1
    40    11     4   ar
    41    39    34   ar
    42    18    20    1
    43    18    21    1
@<TRIPOS>MOLECULE
*****
 39 43 0 0 0
SMALL
GASTEIGER

@<TRIPOS>ATOM
      1 N          63.6457   86.5176   13.3415 N.ar    1  UNL1       -0.3063
      2 C          62.8737   85.5825   12.4586 C.ar    1  UNL1        0.1240
      3 C          62.2906   86.3837   11.3325 C.ar    1  UNL1        0.1156
      4 C          62.7023   87.8139   11.5194 C.ar    1  UNL1        0.0966
      5 C          63.5397   87.8966   12.7611 C.ar    1  UNL1        0.1349
      6 C          64.0977   89.2171   13.2028 C.ar    1  UNL1        0.2819
      7 O          64.9351   89.2999   14.4445 O.2     1  UNL1       -0.2652
      8 N          63.8181   90.4548   12.4029 N.ar    1  UNL1       -0.2417
      9 C          62.9806   90.3720   11.1612 C.ar    1  UNL1        0.3342
     10 O          62.7010   91.6097   10.3612 O.2     1  UNL1       -0.2462
     11 N          62.4227   89.0516   10.7195 N.ar    1  UNL1       -0.2770
     12 C          61.5852   88.9689    9.4778 C.3     1  UNL1        0.1351
     13 N          62.7130   84.1055   12.6654 N.pl3   1  UNL1       -0.2926
     14 C          62.2410   83.5805   13.9889 C.3     1  UNL1        0.0922
     15 C          62.0804   82.1036   14.1957 C.3     1  UNL1        0.0229
     16 C          62.3917   81.1516   13.0790 C.3     1  UNL1        0.0190
     17 C          62.8637   81.6766   11.7556 C.3     1  UNL1        0.0709
     18 N          63.1750   80.7247   10.6390 N.3     1  UNL1       -0.3208
     19 C          63.0244   83.1536   11.5488 C.3     1  UNL1        0.1075
     20 H          63.0114   79.7679   10.9523 H       1  UNL1        0.1189
     21 H          64.1517   80.8303   10.3645 H       1  UNL1        0.1189
     22 C          61.4445   85.8486   10.2155 C.1     1  UNL1        0.1047
     23 N          60.5984   85.3135    9.0983 N.1     1  UNL1       -0.1907
     24 C          64.3926   86.1399   14.5864 C.3     1  UNL1        0.1332
     25 C          62.3822   86.3051   18.0041 C.3     1  UNL1        0.0261
     26 C          63.1342   86.7359   16.7798 C.2     1  UNL1       -0.0460
     27 C          63.3800   88.1935   16.5249 C.3     1  UNL1        0.0261
     28 C          63.6405   85.7092   15.8106 C.2     1  UNL1       -0.0102
     29 C          64.3760   91.7753   12.8446 C.3     1  UNL1        0.1593
     30 C          64.7894   91.9749   14.2726 C.ar    1  UNL1        0.0821
     31 N          63.7582   91.9551   15.3617 N.ar    1  UNL1       -0.2462
     32 C          64.1715   92.1547   16.7897 C.ar    1  UNL1        0.0985
     33 C          65.6161   92.3743   17.1287 C.ar    1  UNL1        0.0207
     34 C          66.6474   92.3941   16.0395 C.ar    1  UNL1        0.0027
     35 C          68.0920   92.6136   16.3785 C.ar    1  UNL1        0.0001
     36 C          69.1232   92.6335   15.2894 C.ar    1  UNL1        0.0000
     37 C          68.7099   92.4339   13.8614 C.ar    1  UNL1        0.0000
     38 C          67.2653   92.2143   13.5224 C.ar    1  UNL1        0.0012
     39 C          66.2340   92.1945   14.6115 C.ar    1  UNL1        0.0155
@<TRIPOS>BOND
     1    25    26    1
     2    26    27    1
     3    26    28    2
     4    28    24    1
     5    24     1    1
     6     1     2   ar
     7     2    13    1
     8    13    14    1
     9    14    15    1
    10    15    16    1
    11    16    17    1
    12    17    18    1
    13    17    19    1
    14     2     3   ar
    15     3    22    1
    16    22    23    3
    17     3     4   ar
    18     4     5   ar
    19     5     6   ar
    20     6     7    2
    21     6     8   ar
    22     8    29    1
    23    29    30    1
    24    30    31   ar
    25    31    32   ar
    26    32    33   ar
    27    33    34   ar
    28    34    35   ar
    29    35    36   ar
    30    36    37   ar
    31    37    38   ar
    32    38    39   ar
    33     8     9   ar
    34     9    10    2
    35     9    11   ar
    36    11    12    1
    37     5     1   ar
    38    39    30   ar
    39    19    13    1
    40    11     4   ar
    41    39    34   ar
    42    18    20    1
    43    18    21    1
@<TRIPOS>MOLECULE
*****
 39 43 0 0 0
SMALL
GASTEIGER

@<TRIPOS>ATOM
      1 N          63.8464   87.3997   13.5123 N.ar    1  UNL1       -0.3063
      2 C          62.9600   86.4094   12.8170 C.ar    1  UNL1        0.1240
      3 C          62.3731   87.0798   11.6104 C.ar    1  UNL1        0.1156
      4 C          62.8968   88.4845   11.5599 C.ar    1  UNL1        0.0966
      5 C          63.8074   88.6822   12.7353 C.ar    1  UNL1        0.1349
      6 C          64.4834   90.0045   12.9464 C.ar    1  UNL1        0.2819
      7 O          65.3939   90.2022   14.1219 O.2     1  UNL1       -0.2652
      8 N          64.2488   91.1292   11.9820 N.ar    1  UNL1       -0.2417
      9 C          63.3381   90.9314   10.8064 C.ar    1  UNL1        0.3342
     10 O          63.1035   92.0561    9.8420 O.2     1  UNL1       -0.2462
     11 N          62.6622   89.6092   10.5954 N.ar    1  UNL1       -0.2770
     12 C          61.7516   89.4115    9.4200 C.3     1  UNL1        0.1351
     13 N          62.7052   84.9966   13.2520 N.pl3   1  UNL1       -0.2926
     14 C          62.2278   84.7156   14.6460 C.3     1  UNL1        0.0922
     15 C          61.9730   83.3029   15.0809 C.3     1  UNL1        0.0229
     16 C          62.1956   82.1711   14.1219 C.3     1  UNL1        0.0190
     17 C          62.6730   82.4521   12.7280 C.3     1  UNL1        0.0709
     18 N          62.8956   81.3204   11.7690 N.3     1  UNL1       -0.3208
     19 C          62.9278   83.8649   12.2931 C.3     1  UNL1        0.1075
     20 H          62.6751   80.4369   12.2287 H       1  UNL1        0.1189
     21 H          63.8711   81.3143   11.4709 H       1  UNL1        0.1189
     22 C          61.4283   86.4553   10.6268 C.1     1  UNL1        0.1047
     23 N          60.4836   85.8307    9.6431 N.1     1  UNL1       -0.1907
     24 C          64.6337   87.1512   14.7647 C.3     1  UNL1        0.1332
     25 C          62.5368   86.9133   18.1257 C.3     1  UNL1        0.0261
     26 C          63.2139   87.4839   16.9149 C.2     1  UNL1       -0.0460
     27 C          63.1484   88.9577   16.6437 C.3     1  UNL1        0.0261
     28 C          63.9566   86.5807   15.9755 C.2     1  UNL1       -0.0102
     29 C          64.9247   92.4515   12.1930 C.3     1  UNL1        0.1593
     30 C          66.1129   92.8280   11.3585 C.ar    1  UNL1        0.0821
     31 N          67.2487   91.8625   11.1919 N.ar    1  UNL1       -0.2462
     32 C          68.4369   92.2391   10.3575 C.ar    1  UNL1        0.0985
     33 C          68.4894   93.5811    9.6896 C.ar    1  UNL1        0.0207
     34 C          67.3536   94.5467    9.8561 C.ar    1  UNL1        0.0027
     35 C          67.4061   95.8887    9.1883 C.ar    1  UNL1        0.0001
     36 C          66.2703   96.8542    9.3548 C.ar    1  UNL1        0.0000
     37 C          65.0821   96.4777   10.1893 C.ar    1  UNL1        0.0000
     38 C          65.0296   95.1356   10.8572 C.ar    1  UNL1        0.0012
     39 C          66.1654   94.1701   10.6906 C.ar    1  UNL1        0.0155
@<TRIPOS>BOND
     1    25    26    1
     2    26    27    1
     3    26    28    2
     4    28    24    1
     5    24     1    1
     6     1     2   ar
     7     2    13    1
     8    13    14    1
     9    14    15    1
    10    15    16    1
    11    16    17    1
    12    17    18    1
    13    17    19    1
    14     2     3   ar
    15     3    22    1
    16    22    23    3
    17     3     4   ar
    18     4     5   ar
    19     5     6   ar
    20     6     7    2
    21     6     8   ar
    22     8    29    1
    23    29    30    1
    24    30    31   ar
    25    31    32   ar
    26    32    33   ar
    27    33    34   ar
    28    34    35   ar
    29    35    36   ar
    30    36    37   ar
    31    37    38   ar
    32    38    39   ar
    33     8     9   ar
    34     9    10    2
    35     9    11   ar
    36    11    12    1
    37     5     1   ar
    38    39    30   ar
    39    19    13    1
    40    11     4   ar
    41    39    34   ar
    42    18    20    1
    43    18    21    1
@<TRIPOS>MOLECULE
*****
 39 43 0 0 0
SMALL
GASTEIGER

@<TRIPOS>ATOM
      1 N          62.9748   85.7172   11.5242 N.ar    1  UNL1       -0.3063
      2 C          63.2121   84.4771   12.3341 C.ar    1  UNL1        0.1240
      3 C          63.5413   84.8953   13.7365 C.ar    1  UNL1        0.1156
      4 C          63.5075   86.3938   13.7934 C.ar    1  UNL1        0.0966
      5 C          63.1575   86.9017   12.4261 C.ar    1  UNL1        0.1349
      6 C          63.0502   88.3774   12.1790 C.ar    1  UNL1        0.2819
      7 O          62.7001   88.8853   10.8117 O.2     1  UNL1       -0.2652
      8 N          63.2930   89.3450   13.2991 N.ar    1  UNL1       -0.2417
      9 C          63.6431   88.8370   14.6664 C.ar    1  UNL1        0.3342
     10 O          63.8859   89.8046   15.7866 O.2     1  UNL1       -0.2462
     11 N          63.7504   87.3614   14.9135 N.ar    1  UNL1       -0.2770
     12 C          64.1004   86.8535   16.2808 C.3     1  UNL1        0.1351
     13 N          63.1338   83.0664   11.8301 N.pl3   1  UNL1       -0.2926
     14 C          63.5620   82.7459   10.4287 C.3     1  UNL1        0.0922
     15 C          63.4837   81.3353    9.9247 C.3     1  UNL1        0.0229
     16 C          62.9772   80.2453   10.8220 C.3     1  UNL1        0.0190
     17 C          62.5490   80.5658   12.2234 C.3     1  UNL1        0.0709
     18 N          62.0425   79.4757   13.1208 N.3     1  UNL1       -0.3208
     19 C          62.6273   81.9764   12.7274 C.3     1  UNL1        0.1075
     20 H          62.0572   78.5879   12.6189 H       1  UNL1        0.1189
     21 H          61.0871   79.6882   13.4079 H       1  UNL1        0.1189
     22 C          63.8501   83.9763   14.8811 C.1     1  UNL1        0.1047
     23 N          64.1589   83.0572   16.0257 N.1     1  UNL1       -0.1907
     24 C          62.6177   85.7644   10.0682 C.3     1  UNL1        0.1332
     25 C          59.4293   86.4783    7.8155 C.3     1  UNL1        0.0261
     26 C          60.7877   86.0042    8.2396 C.2     1  UNL1       -0.0460
     27 C          61.6747   85.2958    7.2590 C.3     1  UNL1        0.0261
     28 C          61.2592   86.2385    9.6441 C.2     1  UNL1       -0.0102
     29 C          63.1858   90.8206   13.0520 C.3     1  UNL1        0.1593
     30 C          64.3741   91.5851   12.5488 C.ar    1  UNL1        0.0821
     31 N          64.5496   91.8152   11.0770 N.ar    1  UNL1       -0.2462
     32 C          65.7379   92.5797   10.5738 C.ar    1  UNL1        0.0985
     33 C          66.7509   93.1142   11.5423 C.ar    1  UNL1        0.0207
     34 C          66.5756   92.8841   13.0142 C.ar    1  UNL1        0.0027
     35 C          67.5885   93.4186   13.9828 C.ar    1  UNL1        0.0001
     36 C          67.4131   93.1885   15.4546 C.ar    1  UNL1        0.0000
     37 C          66.2247   92.4240   15.9578 C.ar    1  UNL1        0.0000
     38 C          65.2118   91.8895   14.9893 C.ar    1  UNL1        0.0012
     39 C          65.3872   92.1196   13.5175 C.ar    1  UNL1        0.0155
@<TRIPOS>BOND
     1    25    26    1
     2    26    27    1
     3    26    28    2
     4    28    24    1
     5    24     1    1
     6     1     2   ar
     7     2    13    1
     8    13    14    1
     9    14    15    1
    10    15    16    1
    11    16    17    1
    12    17    18    1
    13    17    19    1
    14     2     3   ar
    15     3    22    1
    16    22    23    3
    17     3     4   ar
    18     4     5   ar
    19     5     6   ar
    20     6     7    2
    21     6     8   ar
    22     8    29    1
    23    29    30    1
    24    30    31   ar
    25    31    32   ar
    26    32    33   ar
    27    33    34   ar
    28    34    35   ar
    29    35    36   ar
    30    36    37   ar
    31    37    38   ar
    32    38    39   ar
    33     8     9   ar
    34     9    10    2
    35     9    11   ar
    36    11    12    1
    37     5     1   ar
    38    39    30   ar
    39    19    13    1
    40    11     4   ar
    41    39    34   ar
    42    18    20    1
    43    18    21    1
@<TRIPOS>MOLECULE
*****
 39 43 0 0 0
SMALL
GASTEIGER

@<TRIPOS>ATOM
      1 N          64.5535   89.7645   13.7518 N.ar    1  UNL1       -0.3063
      2 C          65.2607   91.0517   13.4466 C.ar    1  UNL1        0.1240
      3 C          64.6901   91.6036   12.1740 C.ar    1  UNL1        0.1156
      4 C          63.6303   90.6576   11.6925 C.ar    1  UNL1        0.0966
      5 C          63.5459   89.5210   12.6677 C.ar    1  UNL1        0.1349
      6 C          62.5623   88.4111   12.4425 C.ar    1  UNL1        0.2819
      7 O          62.4779   87.2745   13.4176 O.2     1  UNL1       -0.2652
      8 N          61.6632   88.4378   11.2421 N.ar    1  UNL1       -0.2417
      9 C          61.7476   89.5745   10.2669 C.ar    1  UNL1        0.3342
     10 O          60.8485   89.6012    9.0666 O.2     1  UNL1       -0.2462
     11 N          62.7312   90.6844   10.4921 N.ar    1  UNL1       -0.2770
     12 C          62.8156   91.8210    9.5170 C.3     1  UNL1        0.1351
     13 N          66.3477   91.6770   14.2697 N.pl3   1  UNL1       -0.2926
     14 C          66.0255   92.2771   15.6062 C.3     1  UNL1        0.0922
     15 C          67.1125   92.9024   16.4292 C.3     1  UNL1        0.0229
     16 C          68.5216   92.9277   15.9158 C.3     1  UNL1        0.0190
     17 C          68.8438   92.3277   14.5794 C.3     1  UNL1        0.0709
     18 N          70.2530   92.3530   14.0660 N.3     1  UNL1       -0.3208
     19 C          67.7569   91.7024   13.7563 C.3     1  UNL1        0.1075
     20 H          70.8555   92.8123   14.7489 H       1  UNL1        0.1189
     21 H          70.2848   92.8662   13.1850 H       1  UNL1        0.1189
     22 C          65.1063   92.8779   11.5008 C.1     1  UNL1        0.1047
     23 N          65.5226   94.1521   10.8277 N.1     1  UNL1       -0.1907
     24 C          64.8091   88.8768   14.9335 C.3     1  UNL1        0.1332
     25 C          62.3730   87.1748   17.5639 C.3     1  UNL1        0.0261
     26 C          63.4269   87.3421   16.5097 C.2     1  UNL1       -0.0460
     27 C          64.1525   86.1419   15.9775 C.3     1  UNL1        0.0261
     28 C          63.7552   88.7094   15.9877 C.2     1  UNL1       -0.0102
     29 C          60.6796   87.3279   11.0169 C.3     1  UNL1        0.1593
     30 C          60.2932   86.9402    9.6203 C.ar    1  UNL1        0.0821
     31 N          58.9845   87.3998    9.0493 N.ar    1  UNL1       -0.2462
     32 C          58.5980   87.0120    7.6528 C.ar    1  UNL1        0.0985
     33 C          59.5202   86.1647    6.8273 C.ar    1  UNL1        0.0207
     34 C          60.8289   85.7050    7.3983 C.ar    1  UNL1        0.0027
     35 C          61.7511   84.8577    6.5728 C.ar    1  UNL1        0.0001
     36 C          63.0598   84.3981    7.1438 C.ar    1  UNL1        0.0000
     37 C          63.4463   84.7859    8.5403 C.ar    1  UNL1        0.0000
     38 C          62.5241   85.6332    9.3658 C.ar    1  UNL1        0.0012
     39 C          61.2154   86.0928    8.7948 C.ar    1  UNL1        0.0155
@<TRIPOS>BOND
     1    25    26    1
     2    26    27    1
     3    26    28    2
     4    28    24    1
     5    24     1    1
     6     1     2   ar
     7     2    13    1
     8    13    14    1
     9    14    15    1
    10    15    16    1
    11    16    17    1
    12    17    18    1
    13    17    19    1
    14     2     3   ar
    15     3    22    1
    16    22    23    3
    17     3     4   ar
    18     4     5   ar
    19     5     6   ar
    20     6     7    2
    21     6     8   ar
    22     8    29    1
    23    29    30    1
    24    30    31   ar
    25    31    32   ar
    26    32    33   ar
    27    33    34   ar
    28    34    35   ar
    29    35    36   ar
    30    36    37   ar
    31    37    38   ar
    32    38    39   ar
    33     8     9   ar
    34     9    10    2
    35     9    11   ar
    36    11    12    1
    37     5     1   ar
    38    39    30   ar
    39    19    13    1
    40    11     4   ar
    41    39    34   ar
    42    18    20    1
    43    18    21    1
@<TRIPOS>MOLECULE
*****
 39 43 0 0 0
SMALL
GASTEIGER

@<TRIPOS>ATOM
      1 N          64.6199   91.5983   12.1364 N.ar    1  UNL1       -0.3063
      2 C          64.9735   91.5048   13.5911 C.ar    1  UNL1        0.1240
      3 C          63.8365   90.8329   14.3022 C.ar    1  UNL1        0.1156
      4 C          62.7802   90.5110   13.2870 C.ar    1  UNL1        0.0966
      5 C          63.2644   90.9841   11.9485 C.ar    1  UNL1        0.1349
      6 C          62.4084   90.7944   10.7313 C.ar    1  UNL1        0.2819
      7 O          62.8926   91.2675    9.3928 O.2     1  UNL1       -0.2652
      8 N          61.0682   90.1318   10.8528 N.ar    1  UNL1       -0.2417
      9 C          60.5840   89.6587   12.1914 C.ar    1  UNL1        0.3342
     10 O          59.2439   88.9960   12.3129 O.2     1  UNL1       -0.2462
     11 N          61.4400   89.8484   13.4085 N.ar    1  UNL1       -0.2770
     12 C          60.9558   89.3753   14.7470 C.3     1  UNL1        0.1351
     13 N          66.2415   91.9969   14.2236 N.pl3   1  UNL1       -0.2926
     14 C          66.1898   92.7504   15.5196 C.3     1  UNL1        0.0922
     15 C          67.4578   93.2425   16.1521 C.3     1  UNL1        0.0229
     16 C          68.7775   92.9811   15.4886 C.3     1  UNL1        0.0190
     17 C          68.8291   92.2276   14.1926 C.3     1  UNL1        0.0709
     18 N          70.1488   91.9662   13.5291 N.3     1  UNL1       -0.3208
     19 C          67.5611   91.7355   13.5602 C.3     1  UNL1        0.1075
     20 H          70.8981   92.3680   14.0926 H       1  UNL1        0.1189
     21 H          70.1539   92.3928   12.6026 H       1  UNL1        0.1189
     22 C          63.7678   90.5350   15.7707 C.1     1  UNL1        0.1047
     23 N          63.6990   90.2371   17.2393 N.1     1  UNL1       -0.1907
     24 C          65.4722   92.2002   11.0588 C.3     1  UNL1        0.1332
     25 C          66.9361   95.7645   10.1086 C.3     1  UNL1        0.0261
     26 C          66.7717   94.2758   10.1910 C.2     1  UNL1       -0.0460
     27 C          67.7426   93.3741    9.4878 C.3     1  UNL1        0.0261
     28 C          65.6366   93.6889   10.9764 C.2     1  UNL1       -0.0102
     29 C          60.2122   89.9421    9.6358 C.3     1  UNL1        0.1593
     30 C          60.1682   88.6087    8.9501 C.ar    1  UNL1        0.0821
     31 N          59.3181   88.4211    7.7286 N.ar    1  UNL1       -0.2462
     32 C          59.2741   87.0877    7.0430 C.ar    1  UNL1        0.0985
     33 C          60.0801   85.9419    7.5789 C.ar    1  UNL1        0.0207
     34 C          60.9302   86.1294    8.8005 C.ar    1  UNL1        0.0027
     35 C          61.7363   84.9835    9.3364 C.ar    1  UNL1        0.0001
     36 C          62.5863   85.1710   10.5579 C.ar    1  UNL1        0.0000
     37 C          62.6304   86.5045   11.2435 C.ar    1  UNL1        0.0000
     38 C          61.8244   87.6503   10.7076 C.ar    1  UNL1        0.0012
     39 C          60.9743   87.4628    9.4861 C.ar    1  UNL1        0.0155
@<TRIPOS>BOND
     1    25    26    1
     2    26    27    1
     3    26    28    2
     4    28    24    1
     5    24     1    1
     6     1     2   ar
     7     2    13    1
     8    13    14    1
     9    14    15    1
    10    15    16    1
    11    16    17    1
    12    17    18    1
    13    17    19    1
    14     2     3   ar
    15     3    22    1
    16    22    23    3
    17     3     4   ar
    18     4     5   ar
    19     5     6   ar
    20     6     7    2
    21     6     8   ar
    22     8    29    1
    23    29    30    1
    24    30    31   ar
    25    31    32   ar
    26    32    33   ar
    27    33    34   ar
    28    34    35   ar
    29    35    36   ar
    30    36    37   ar
    31    37    38   ar
    32    38    39   ar
    33     8     9   ar
    34     9    10    2
    35     9    11   ar
    36    11    12    1
    37     5     1   ar
    38    39    30   ar
    39    19    13    1
    40    11     4   ar
    41    39    34   ar
    42    18    20    1
    43    18    21    1
@<TRIPOS>MOLECULE
*****
 39 43 0 0 0
SMALL
GASTEIGER

@<TRIPOS>ATOM
      1 N          63.1059   85.8506   11.7004 N.ar    1  UNL1       -0.3063
      2 C          63.3083   84.5575   12.4333 C.ar    1  UNL1        0.1240
      3 C          63.5782   84.8784   13.8735 C.ar    1  UNL1        0.1156
      4 C          63.5426   86.3697   14.0308 C.ar    1  UNL1        0.0966
      5 C          63.2507   86.9705   12.6877 C.ar    1  UNL1        0.1349
      6 C          63.1544   88.4598   12.5372 C.ar    1  UNL1        0.2819
      7 O          62.8625   89.0606   11.1942 O.2     1  UNL1       -0.2652
      8 N          63.3500   89.3483   13.7298 N.ar    1  UNL1       -0.2417
      9 C          63.6420   88.7475   15.0729 C.ar    1  UNL1        0.3342
     10 O          63.8376   89.6360   16.2655 O.2     1  UNL1       -0.2462
     11 N          63.7382   87.2582   15.2234 N.ar    1  UNL1       -0.2770
     12 C          64.0301   86.6574   16.5664 C.3     1  UNL1        0.1351
     13 N          63.2509   83.1846   11.8316 N.pl3   1  UNL1       -0.2926
     14 C          63.7052   82.9653   10.4190 C.3     1  UNL1        0.0922
     15 C          63.6478   81.5925    9.8174 C.3     1  UNL1        0.0229
     16 C          63.1361   80.4390   10.6283 C.3     1  UNL1        0.0190
     17 C          62.6818   80.6583   12.0409 C.3     1  UNL1        0.0709
     18 N          62.1702   79.5048   12.8519 N.3     1  UNL1       -0.3208
     19 C          62.7393   82.0311   12.6426 C.3     1  UNL1        0.1075
     20 H          62.2011   78.6540   12.2901 H       1  UNL1        0.1189
     21 H          61.2083   79.6895   13.1365 H       1  UNL1        0.1189
     22 C          63.8381   83.8827   14.9649 C.1     1  UNL1        0.1047
     23 N          64.0979   82.8870   16.0563 N.1     1  UNL1       -0.1907
     24 C          62.8105   85.9978   10.2372 C.3     1  UNL1        0.1332
     25 C          59.5994   86.4175    7.9433 C.3     1  UNL1        0.0261
     26 C          60.9784   86.0384    8.3956 C.2     1  UNL1       -0.0460
     27 C          61.9042   85.3208    7.4586 C.3     1  UNL1        0.0261
     28 C          61.4315   86.3769    9.7848 C.2     1  UNL1       -0.0102
     29 C          63.2538   90.8376   13.5794 C.3     1  UNL1        0.1593
     30 C          64.4729   91.6909   13.7683 C.ar    1  UNL1        0.0821
     31 N          65.0069   91.9410   15.1475 N.ar    1  UNL1       -0.2462
     32 C          66.2260   92.7943   15.3365 C.ar    1  UNL1        0.0985
     33 C          66.9111   93.3974   14.1462 C.ar    1  UNL1        0.0207
     34 C          66.3771   93.1473   12.7669 C.ar    1  UNL1        0.0027
     35 C          67.0623   93.7505   11.5766 C.ar    1  UNL1        0.0001
     36 C          66.5283   93.5004   10.1975 C.ar    1  UNL1        0.0000
     37 C          65.3091   92.6471   10.0085 C.ar    1  UNL1        0.0000
     38 C          64.6240   92.0440   11.1988 C.ar    1  UNL1        0.0012
     39 C          65.1580   92.2941   12.5780 C.ar    1  UNL1        0.0155
@<TRIPOS>BOND
     1    25    26    1
     2    26    27    1
     3    26    28    2
     4    28    24    1
     5    24     1    1
     6     1     2   ar
     7     2    13    1
     8    13    14    1
     9    14    15    1
    10    15    16    1
    11    16    17    1
    12    17    18    1
    13    17    19    1
    14     2     3   ar
    15     3    22    1
    16    22    23    3
    17     3     4   ar
    18     4     5   ar
    19     5     6   ar
    20     6     7    2
    21     6     8   ar
    22     8    29    1
    23    29    30    1
    24    30    31   ar
    25    31    32   ar
    26    32    33   ar
    27    33    34   ar
    28    34    35   ar
    29    35    36   ar
    30    36    37   ar
    31    37    38   ar
    32    38    39   ar
    33     8     9   ar
    34     9    10    2
    35     9    11   ar
    36    11    12    1
    37     5     1   ar
    38    39    30   ar
    39    19    13    1
    40    11     4   ar
    41    39    34   ar
    42    18    20    1
    43    18    21    1
@<TRIPOS>MOLECULE
*****
 39 43 0 0 0
SMALL
GASTEIGER

@<TRIPOS>ATOM
      1 N          64.3505   88.8657   13.9846 N.ar    1  UNL1       -0.3063
      2 C          64.7072   90.2864   13.6614 C.ar    1  UNL1        0.1240
      3 C          64.1398   90.6111   12.3114 C.ar    1  UNL1        0.1156
      4 C          63.4323   89.3912   11.8002 C.ar    1  UNL1        0.0966
      5 C          63.5626   88.3125   12.8343 C.ar    1  UNL1        0.1349
      6 C          62.9469   86.9657   12.5949 C.ar    1  UNL1        0.2819
      7 O          63.0772   85.8870   13.6290 O.2     1  UNL1       -0.2652
      8 N          62.2009   86.6978   11.3215 N.ar    1  UNL1       -0.2417
      9 C          62.0707   87.7766   10.2874 C.ar    1  UNL1        0.3342
     10 O          61.3247   87.5086    9.0139 O.2     1  UNL1       -0.2462
     11 N          62.6864   89.1232   10.5268 N.ar    1  UNL1       -0.2770
     12 C          62.5561   90.2020    9.4927 C.3     1  UNL1        0.1351
     13 N          65.4934   91.2186   14.5349 N.pl3   1  UNL1       -0.2926
     14 C          64.8714   91.7875   15.7755 C.3     1  UNL1        0.0922
     15 C          65.6576   92.7197   16.6490 C.3     1  UNL1        0.0229
     16 C          67.0658   93.0829   16.2817 C.3     1  UNL1        0.0190
     17 C          67.6879   92.5140   15.0410 C.3     1  UNL1        0.0709
     18 N          69.0961   92.8773   14.6738 N.3     1  UNL1       -0.3208
     19 C          66.9017   91.5819   14.1676 C.3     1  UNL1        0.1075
     20 H          69.4760   93.5153   15.3731 H       1  UNL1        0.1189
     21 H          69.1030   93.3310   13.7602 H       1  UNL1        0.1189
     22 C          64.2588   91.9251   11.5978 C.1     1  UNL1        0.1047
     23 N          64.3779   93.2392   10.8843 N.1     1  UNL1       -0.1907
     24 C          64.7173   88.1278   15.2379 C.3     1  UNL1        0.1332
     25 C          62.3582   86.5364   18.0041 C.3     1  UNL1        0.0261
     26 C          63.3512   86.6559   16.8862 C.2     1  UNL1       -0.0460
     27 C          63.9710   85.4226   16.2988 C.3     1  UNL1        0.0261
     28 C          63.7243   88.0083   16.3558 C.2     1  UNL1       -0.0102
     29 C          61.5852   85.3511   11.0821 C.3     1  UNL1        0.1593
     30 C          62.4615   84.1469   10.9029 C.ar    1  UNL1        0.0821
     31 N          63.2875   83.9987    9.6597 N.ar    1  UNL1       -0.2462
     32 C          64.1637   82.7945    9.4805 C.ar    1  UNL1        0.0985
     33 C          64.2141   81.7386   10.5447 C.ar    1  UNL1        0.0207
     34 C          63.3881   81.8868   11.7880 C.ar    1  UNL1        0.0027
     35 C          63.4384   80.8308   12.8522 C.ar    1  UNL1        0.0001
     36 C          62.6124   80.9791   14.0954 C.ar    1  UNL1        0.0000
     37 C          61.7362   82.1833   14.2746 C.ar    1  UNL1        0.0000
     38 C          61.6858   83.2392   13.2104 C.ar    1  UNL1        0.0012
     39 C          62.5118   83.0910   11.9672 C.ar    1  UNL1        0.0155
@<TRIPOS>BOND
     1    25    26    1
     2    26    27    1
     3    26    28    2
     4    28    24    1
     5    24     1    1
     6     1     2   ar
     7     2    13    1
     8    13    14    1
     9    14    15    1
    10    15    16    1
    11    16    17    1
    12    17    18    1
    13    17    19    1
    14     2     3   ar
    15     3    22    1
    16    22    23    3
    17     3     4   ar
    18     4     5   ar
    19     5     6   ar
    20     6     7    2
    21     6     8   ar
    22     8    29    1
    23    29    30    1
    24    30    31   ar
    25    31    32   ar
    26    32    33   ar
    27    33    34   ar
    28    34    35   ar
    29    35    36   ar
    30    36    37   ar
    31    37    38   ar
    32    38    39   ar
    33     8     9   ar
    34     9    10    2
    35     9    11   ar
    36    11    12    1
    37     5     1   ar
    38    39    30   ar
    39    19    13    1
    40    11     4   ar
    41    39    34   ar
    42    18    20    1
    43    18    21    1
