@<TRIPOS>MOLECULE
*****
 42 46 0 0 0
SMALL
GASTEIGER

@<TRIPOS>ATOM
      1 C          63.3845   87.0001   13.0345 C.2     1  UNL1        0.2411
      2 O          63.8929   86.8557   13.8647 O.2     1  UNL1       -0.2733
      3 N          63.2527   88.4498   12.6726 N.am    1  UNL1       -0.2966
      4 H          62.7627   88.7116   11.8598 H       1  UNL1        0.1499
      5 C          62.7698   85.9493   12.1580 C.3     1  UNL1        0.1555
      6 C          61.2607   86.4988   10.1158 C.2     1  UNL1        0.4017
      7 O          62.4782   86.6155    9.2474 O.2     1  UNL1       -0.2264
      8 N          61.4065   86.1657   11.5711 N.am    1  UNL1       -0.2637
      9 H          60.6074   86.0892   12.1411 H       1  UNL1        0.1532
     10 O          59.8973   86.7152    9.5289 O.3     1  UNL1       -0.4419
     11 C          59.2609   86.6697    7.5059 C.3     1  UNL1        0.0437
     12 C          59.6973   87.7447    8.4565 C.3     1  UNL1        0.1378
     13 C          60.1336   88.8198    9.4072 C.3     1  UNL1        0.0437
     14 C          59.4972   88.7743    7.3841 C.3     1  UNL1        0.0437
     15 C          63.5186   84.6822   11.8684 C.3     1  UNL1        0.0585
     16 C          63.0598   83.3862   12.4683 C.ar    1  UNL1        0.0180
     17 C          62.4582   83.3671   13.8422 C.ar    1  UNL1        0.1370
     18 F          62.3162   84.1378   14.4375 F       1  UNL1       -0.2045
     19 C          61.9994   82.0711   14.4421 C.ar    1  UNL1        0.0294
     20 C          62.1423   80.7942   13.6681 C.ar    1  UNL1        0.0031
     21 C          62.7439   80.8133   12.2942 C.ar    1  UNL1        0.0112
     22 C          63.2027   82.1093   11.6943 C.ar    1  UNL1        0.0559
     23 CL         63.8043   82.1285   10.3203 Cl      1  UNL1       -0.0825
     24 C          63.8673   89.5005   13.5491 C.3     1  UNL1        0.1543
     25 C          64.3993   90.7654   12.9432 C.ar    1  UNL1        0.1417
     26 N          64.3521   91.1348   11.4902 N.ar    1  UNL1       -0.2276
     27 C          64.9956   92.4807   11.3330 C.ar    1  UNL1        0.1167
     28 C          65.2339   93.3449   10.1304 C.ar    1  UNL1        0.0238
     29 C          65.9170   94.6714   10.2836 C.ar    1  UNL1        0.0223
     30 C          66.3618   95.1338   11.6395 C.ar    1  UNL1        0.1006
     31 N          66.1235   94.2696   12.8421 N.ar    1  UNL1       -0.2252
     32 C          65.4404   92.9430   12.6888 C.ar    1  UNL1        0.1626
     33 N          65.0719   91.8829   13.6840 N.ar    1  UNL1       -0.2990
     34 C          65.3306   91.9318   15.1607 C.3     1  UNL1        0.0898
     35 C          65.0815   91.8640   16.6383 C.3     1  UNL1        0.0273
     36 C          63.9584   91.6128   15.6763 C.3     1  UNL1        0.0273
     37 C          66.7924   92.2676   15.1581 C.ar    1  UNL1       -0.0037
     38 C          67.7260   91.5465   14.2317 C.ar    1  UNL1       -0.0025
     39 C          69.1879   91.8823   14.2291 C.ar    1  UNL1       -0.0003
     40 C          69.7162   92.9394   15.1529 C.ar    1  UNL1       -0.0000
     41 C          68.7826   93.6606   16.0794 C.ar    1  UNL1       -0.0003
     42 C          67.3207   93.3247   16.0820 C.ar    1  UNL1       -0.0025
@<TRIPOS>BOND
     1    11    12    1
     2    12    13    1
     3    12    14    1
     4    12    10    1
     5    10     6    1
     6     6     7    2
     7     6     8   am
     8     8     5    1
     9     5    15    1
    10    15    16    1
    11    16    17   ar
    12    17    18    1
    13    17    19   ar
    14    19    20   ar
    15    20    21   ar
    16    21    22   ar
    17    22    23    1
    18     5     1    1
    19     1     2    2
    20     1     3   am
    21     3    24    1
    22    24    25    1
    23    25    26   ar
    24    26    27   ar
    25    27    28   ar
    26    28    29   ar
    27    29    30   ar
    28    30    31   ar
    29    31    32   ar
    30    32    33   ar
    31    33    34    1
    32    34    37    1
    33    37    38   ar
    34    38    39   ar
    35    39    40   ar
    36    40    41   ar
    37    41    42   ar
    38    34    35    1
    39    35    36    1
    40    22    16   ar
    41    33    25   ar
    42    36    34    1
    43    32    27   ar
    44    42    37   ar
    45     8     9    1
    46     3     4    1
@<TRIPOS>MOLECULE
*****
 42 46 0 0 0
SMALL
GASTEIGER

@<TRIPOS>ATOM
      1 C          62.8024   89.6267   11.5132 C.2     1  UNL1        0.2411
      2 O          62.4404   90.1328   12.2757 O.2     1  UNL1       -0.2733
      3 N          63.7903   90.4134   10.7037 N.am    1  UNL1       -0.2966
      4 H          64.2168   90.0055    9.9157 H       1  UNL1        0.1499
      5 C          62.4644   88.2186   11.1221 C.3     1  UNL1        0.1555
      6 C          62.5056   85.8185   12.1161 C.2     1  UNL1        0.4017
      7 O          63.4367   85.3822   11.0239 O.2     1  UNL1       -0.2264
      8 N          62.0195   87.2367   12.1651 N.am    1  UNL1       -0.2637
      9 H          61.4084   87.5231   12.8819 H       1  UNL1        0.1532
     10 O          62.0607   84.8366   13.1591 O.3     1  UNL1       -0.4419
     11 C          63.6001   85.1244   14.5899 C.3     1  UNL1        0.0437
     12 C          63.0657   83.9473   13.8291 C.3     1  UNL1        0.1378
     13 C          62.5313   82.7702   13.0684 C.3     1  UNL1        0.0437
     14 C          64.0708   83.0580   14.4992 C.3     1  UNL1        0.0437
     15 C          62.5714   87.7923    9.6879 C.3     1  UNL1        0.0585
     16 C          61.3427   87.3732    8.9364 C.ar    1  UNL1        0.0180
     17 C          60.1015   88.2129    9.0004 C.ar    1  UNL1        0.1370
     18 F          59.9792   89.0522    9.4996 F       1  UNL1       -0.2045
     19 C          58.8729   87.7938    8.2489 C.ar    1  UNL1        0.0294
     20 C          58.8855   86.5349    7.4335 C.ar    1  UNL1        0.0031
     21 C          60.1267   85.6951    7.3695 C.ar    1  UNL1        0.0112
     22 C          61.3553   86.1142    8.1210 C.ar    1  UNL1        0.0559
     23 CL         62.5966   85.2745    8.0570 Cl      1  UNL1       -0.0825
     24 C          64.1282   91.8215   11.0947 C.3     1  UNL1        0.1543
     25 C          65.0762   92.0780   12.2286 C.ar    1  UNL1        0.1417
     26 N          64.7488   91.9862   13.6895 N.ar    1  UNL1       -0.2276
     27 C          65.9883   92.3228   14.4644 C.ar    1  UNL1        0.1167
     28 C          66.2625   92.3950   15.9373 C.ar    1  UNL1        0.0238
     29 C          67.6301   92.7671   16.4282 C.ar    1  UNL1        0.0223
     30 C          68.7236   93.0670   15.4462 C.ar    1  UNL1        0.1006
     31 N          68.4494   92.9949   13.9732 N.ar    1  UNL1       -0.2252
     32 C          67.0817   92.6227   13.4824 C.ar    1  UNL1        0.1626
     33 N          66.5180   92.4714   12.1006 N.ar    1  UNL1       -0.2990
     34 C          67.2650   92.6774   10.8162 C.3     1  UNL1        0.0898
     35 C          68.1663   92.3999    9.6497 C.3     1  UNL1        0.0273
     36 C          67.9686   91.3569   10.7094 C.3     1  UNL1        0.0273
     37 C          66.8209   94.0694   10.4769 C.ar    1  UNL1       -0.0037
     38 C          66.9656   94.5818    9.0746 C.ar    1  UNL1       -0.0025
     39 C          66.5215   95.9739    8.7353 C.ar    1  UNL1       -0.0003
     40 C          65.9328   96.8533    9.7983 C.ar    1  UNL1       -0.0000
     41 C          65.7881   96.3408   11.2006 C.ar    1  UNL1       -0.0003
     42 C          66.2322   94.9488   11.5399 C.ar    1  UNL1       -0.0025
@<TRIPOS>BOND
     1    11    12    1
     2    12    13    1
     3    12    14    1
     4    12    10    1
     5    10     6    1
     6     6     7    2
     7     6     8   am
     8     8     5    1
     9     5    15    1
    10    15    16    1
    11    16    17   ar
    12    17    18    1
    13    17    19   ar
    14    19    20   ar
    15    20    21   ar
    16    21    22   ar
    17    22    23    1
    18     5     1    1
    19     1     2    2
    20     1     3   am
    21     3    24    1
    22    24    25    1
    23    25    26   ar
    24    26    27   ar
    25    27    28   ar
    26    28    29   ar
    27    29    30   ar
    28    30    31   ar
    29    31    32   ar
    30    32    33   ar
    31    33    34    1
    32    34    37    1
    33    37    38   ar
    34    38    39   ar
    35    39    40   ar
    36    40    41   ar
    37    41    42   ar
    38    34    35    1
    39    35    36    1
    40    22    16   ar
    41    33    25   ar
    42    36    34    1
    43    32    27   ar
    44    42    37   ar
    45     8     9    1
    46     3     4    1
@<TRIPOS>MOLECULE
*****
 42 46 0 0 0
SMALL
GASTEIGER

@<TRIPOS>ATOM
      1 C          62.1424   90.1528   11.0366 C.2     1  UNL1        0.2411
      2 O          61.7644   90.9102   11.5385 O.2     1  UNL1       -0.2733
      3 N          63.4923   90.4508   10.4543 N.am    1  UNL1       -0.2966
      4 H          63.9653   89.7638    9.9313 H       1  UNL1        0.1499
      5 C          61.5134   88.8080   10.8223 C.3     1  UNL1        0.1555
      6 C          62.7981   87.6600   12.7670 C.2     1  UNL1        0.4017
      7 O          63.9557   88.5891   12.5508 O.2     1  UNL1       -0.2264
      8 N          61.5770   87.7694   11.9027 N.am    1  UNL1       -0.2637
      9 H          60.8172   87.1596   12.0446 H       1  UNL1        0.1532
     10 O          62.8616   86.6215   13.8474 O.3     1  UNL1       -0.4419
     11 C          63.1300   84.8583   12.6989 C.3     1  UNL1        0.0437
     12 C          63.9009   85.5414   13.7893 C.3     1  UNL1        0.1378
     13 C          64.6718   86.2246   14.8797 C.3     1  UNL1        0.0437
     14 C          64.9402   84.4613   13.7312 C.3     1  UNL1        0.0437
     15 C          60.8209   88.5018    9.5274 C.3     1  UNL1        0.0585
     16 C          61.1621   87.2517    8.7717 C.ar    1  UNL1        0.0180
     17 C          62.5102   86.6165    8.9424 C.ar    1  UNL1        0.1370
     18 F          63.2439   86.9298    9.5186 F       1  UNL1       -0.2045
     19 C          62.8513   85.3665    8.1867 C.ar    1  UNL1        0.0294
     20 C          61.8444   84.7518    7.2603 C.ar    1  UNL1        0.0031
     21 C          60.4964   85.3870    7.0896 C.ar    1  UNL1        0.0112
     22 C          60.1552   86.6370    7.8453 C.ar    1  UNL1        0.0559
     23 CL         58.8071   87.2723    7.6746 Cl      1  UNL1       -0.0825
     24 C          64.1213   91.7955   10.6686 C.3     1  UNL1        0.1543
     25 C          64.9600   92.0456   11.8868 C.ar    1  UNL1        0.1417
     26 N          64.5075   91.9144   13.3109 N.ar    1  UNL1       -0.2276
     27 C          65.6663   92.2585   14.1991 C.ar    1  UNL1        0.1167
     28 C          65.8083   92.3032   15.6916 C.ar    1  UNL1        0.0238
     29 C          67.1190   92.6917   16.3090 C.ar    1  UNL1        0.0223
     30 C          68.2876   93.0356   15.4338 C.ar    1  UNL1        0.1006
     31 N          68.1456   92.9910   13.9412 N.ar    1  UNL1       -0.2252
     32 C          66.8350   92.6024   13.3239 C.ar    1  UNL1        0.1626
     33 N          66.3984   92.4708   11.8948 N.ar    1  UNL1       -0.2990
     34 C          67.2507   92.7206   10.6860 C.3     1  UNL1        0.0898
     35 C          68.2648   92.4918    9.6047 C.3     1  UNL1        0.0273
     36 C          68.0124   91.4294   10.6330 C.3     1  UNL1        0.0273
     37 C          66.7852   94.0985   10.3193 C.ar    1  UNL1       -0.0037
     38 C          66.1598   94.9804   11.3590 C.ar    1  UNL1       -0.0025
     39 C          65.6942   96.3584   10.9923 C.ar    1  UNL1       -0.0003
     40 C          65.8541   96.8544    9.5857 C.ar    1  UNL1       -0.0000
     41 C          66.4795   95.9725    8.5459 C.ar    1  UNL1       -0.0003
     42 C          66.9451   94.5946    8.9127 C.ar    1  UNL1       -0.0025
@<TRIPOS>BOND
     1    11    12    1
     2    12    13    1
     3    12    14    1
     4    12    10    1
     5    10     6    1
     6     6     7    2
     7     6     8   am
     8     8     5    1
     9     5    15    1
    10    15    16    1
    11    16    17   ar
    12    17    18    1
    13    17    19   ar
    14    19    20   ar
    15    20    21   ar
    16    21    22   ar
    17    22    23    1
    18     5     1    1
    19     1     2    2
    20     1     3   am
    21     3    24    1
    22    24    25    1
    23    25    26   ar
    24    26    27   ar
    25    27    28   ar
    26    28    29   ar
    27    29    30   ar
    28    30    31   ar
    29    31    32   ar
    30    32    33   ar
    31    33    34    1
    32    34    37    1
    33    37    38   ar
    34    38    39   ar
    35    39    40   ar
    36    40    41   ar
    37    41    42   ar
    38    34    35    1
    39    35    36    1
    40    22    16   ar
    41    33    25   ar
    42    36    34    1
    43    32    27   ar
    44    42    37   ar
    45     8     9    1
    46     3     4    1
@<TRIPOS>MOLECULE
*****
 42 46 0 0 0
SMALL
GASTEIGER

@<TRIPOS>ATOM
      1 C          62.8111   89.5886   11.9215 C.2     1  UNL1        0.2411
      2 O          62.6290   90.1324   12.7213 O.2     1  UNL1       -0.2733
      3 N          63.6316   90.3121   10.8952 N.am    1  UNL1       -0.2966
      4 H          63.8743   89.8632   10.0533 H       1  UNL1        0.1499
      5 C          62.3605   88.1810   11.6651 C.3     1  UNL1        0.1555
      6 C          62.9216   85.7031   12.2088 C.2     1  UNL1        0.4017
      7 O          61.5037   85.4774   12.6431 O.2     1  UNL1       -0.2264
      8 N          63.3500   87.0550   11.7198 N.am    1  UNL1       -0.2637
      9 H          64.2806   87.2032   11.4347 H       1  UNL1        0.1532
     10 O          63.9111   84.5772   12.2635 O.3     1  UNL1       -0.4419
     11 C          63.5476   83.7528   10.3431 C.3     1  UNL1        0.0437
     12 C          63.5334   83.2211   11.7456 C.3     1  UNL1        0.1378
     13 C          63.5192   82.6893   13.1481 C.3     1  UNL1        0.0437
     14 C          63.1557   81.8649   11.2275 C.3     1  UNL1        0.0437
     15 C          60.9204   87.8995   11.3539 C.3     1  UNL1        0.0585
     16 C          60.4689   87.7894    9.9277 C.ar    1  UNL1        0.0180
     17 C          60.4926   86.4598    9.2339 C.ar    1  UNL1        0.1370
     18 F          60.7824   85.5990    9.6130 F       1  UNL1       -0.2045
     19 C          60.0411   86.3498    7.8078 C.ar    1  UNL1        0.0294
     20 C          59.5658   87.5695    7.0754 C.ar    1  UNL1        0.0031
     21 C          59.5421   88.8992    7.7691 C.ar    1  UNL1        0.0112
     22 C          59.9936   89.0091    9.1953 C.ar    1  UNL1        0.0559
     23 CL         59.9699   90.3389    9.8891 Cl      1  UNL1       -0.0825
     24 C          64.0822   91.7197   11.1516 C.3     1  UNL1        0.1543
     25 C          65.0331   92.0099   12.2748 C.ar    1  UNL1        0.1417
     26 N          64.7201   91.9247   13.7393 N.ar    1  UNL1       -0.2276
     27 C          65.9575   92.2985   14.5003 C.ar    1  UNL1        0.1167
     28 C          66.2421   92.3918   15.9700 C.ar    1  UNL1        0.0238
     29 C          67.6045   92.8012   16.4456 C.ar    1  UNL1        0.0223
     30 C          68.6823   93.1174   15.4514 C.ar    1  UNL1        0.1006
     31 N          68.3977   93.0241   13.9817 N.ar    1  UNL1       -0.2252
     32 C          67.0353   92.6146   13.5061 C.ar    1  UNL1        0.1626
     33 N          66.4640   92.4363   12.1307 N.ar    1  UNL1       -0.2990
     34 C          67.1952   92.6473   10.8381 C.3     1  UNL1        0.0898
     35 C          68.0751   92.3711    9.6551 C.3     1  UNL1        0.0273
     36 C          67.8774   91.3179   10.7046 C.3     1  UNL1        0.0273
     37 C          66.7671   94.0498   10.5225 C.ar    1  UNL1       -0.0037
     38 C          66.1795   94.9145   11.5981 C.ar    1  UNL1       -0.0025
     39 C          65.7513   96.3171   11.2826 C.ar    1  UNL1       -0.0003
     40 C          65.9108   96.8549    9.8914 C.ar    1  UNL1       -0.0000
     41 C          66.4985   95.9901    8.8158 C.ar    1  UNL1       -0.0003
     42 C          66.9266   94.5876    9.1314 C.ar    1  UNL1       -0.0025
@<TRIPOS>BOND
     1    11    12    1
     2    12    13    1
     3    12    14    1
     4    12    10    1
     5    10     6    1
     6     6     7    2
     7     6     8   am
     8     8     5    1
     9     5    15    1
    10    15    16    1
    11    16    17   ar
    12    17    18    1
    13    17    19   ar
    14    19    20   ar
    15    20    21   ar
    16    21    22   ar
    17    22    23    1
    18     5     1    1
    19     1     2    2
    20     1     3   am
    21     3    24    1
    22    24    25    1
    23    25    26   ar
    24    26    27   ar
    25    27    28   ar
    26    28    29   ar
    27    29    30   ar
    28    30    31   ar
    29    31    32   ar
    30    32    33   ar
    31    33    34    1
    32    34    37    1
    33    37    38   ar
    34    38    39   ar
    35    39    40   ar
    36    40    41   ar
    37    41    42   ar
    38    34    35    1
    39    35    36    1
    40    22    16   ar
    41    33    25   ar
    42    36    34    1
    43    32    27   ar
    44    42    37   ar
    45     8     9    1
    46     3     4    1
@<TRIPOS>MOLECULE
*****
 42 46 0 0 0
SMALL
GASTEIGER

@<TRIPOS>ATOM
      1 C          64.2280   91.5834   11.0606 C.2     1  UNL1        0.2411
      2 O          64.0423   91.3745   10.1170 O.2     1  UNL1       -0.2733
      3 N          63.3961   90.7776   12.0139 N.am    1  UNL1       -0.2966
      4 H          63.4985   90.9042   12.9848 H       1  UNL1        0.1499
      5 C          65.2159   92.5820   11.5867 C.3     1  UNL1        0.1555
      6 C          66.0320   91.8327   13.9367 C.2     1  UNL1        0.4017
      7 O          64.6364   91.9767   14.4673 O.2     1  UNL1       -0.2264
      8 N          66.3218   92.1353   12.4964 N.am    1  UNL1       -0.2637
      9 H          67.2377   92.0408   12.1481 H       1  UNL1        0.1532
     10 O          67.1379   91.3859   14.8464 O.3     1  UNL1       -0.4419
     11 C          69.1048   91.9914   14.3323 C.3     1  UNL1        0.0437
     12 C          68.1148   92.3875   15.3872 C.3     1  UNL1        0.1378
     13 C          67.1247   92.7835   16.4422 C.3     1  UNL1        0.0437
     14 C          69.0918   93.3890   15.9281 C.3     1  UNL1        0.0437
     15 C          65.0980   94.0274   11.2032 C.3     1  UNL1        0.0585
     16 C          65.9784   94.5923   10.1281 C.ar    1  UNL1        0.0180
     17 C          67.0518   93.7430    9.5145 C.ar    1  UNL1        0.1370
     18 F          67.2678   92.8090    9.7369 F       1  UNL1       -0.2045
     19 C          67.9322   94.3079    8.4394 C.ar    1  UNL1        0.0294
     20 C          67.7392   95.7221    7.9780 C.ar    1  UNL1        0.0031
     21 C          66.6658   96.5713    8.5916 C.ar    1  UNL1        0.0112
     22 C          65.7854   96.0064    9.6666 C.ar    1  UNL1        0.0559
     23 CL         64.7120   96.8557   10.2803 Cl      1  UNL1       -0.0825
     24 C          62.4082   89.7790   11.4878 C.3     1  UNL1        0.1543
     25 C          62.5772   88.3214   11.7988 C.ar    1  UNL1        0.1417
     26 N          63.5369   87.7374   12.7928 N.ar    1  UNL1       -0.2276
     27 C          63.3690   86.2469   12.7787 C.ar    1  UNL1        0.1167
     28 C          64.0471   85.1532   13.5494 C.ar    1  UNL1        0.0238
     29 C          63.6617   83.7223   13.3174 C.ar    1  UNL1        0.0223
     30 C          62.5982   83.3850   12.3148 C.ar    1  UNL1        0.1006
     31 N          61.9201   84.4787   11.5441 N.ar    1  UNL1       -0.2252
     32 C          62.3055   85.9097   11.7761 C.ar    1  UNL1        0.1626
     33 N          61.8161   87.1918   11.1705 N.ar    1  UNL1       -0.2990
     34 C          60.7525   87.3214   10.1208 C.3     1  UNL1        0.0898
     35 C          59.4819   87.7470    9.4467 C.3     1  UNL1        0.0273
     36 C          59.7872   88.2185   10.8375 C.3     1  UNL1        0.0273
     37 C          61.3483   86.4695    9.0396 C.ar    1  UNL1       -0.0037
     38 C          62.8170   86.1649    9.0485 C.ar    1  UNL1       -0.0025
     39 C          63.4128   85.3129    7.9672 C.ar    1  UNL1       -0.0003
     40 C          62.5399   84.7655    6.8771 C.ar    1  UNL1       -0.0000
     41 C          61.0711   85.0701    6.8682 C.ar    1  UNL1       -0.0003
     42 C          60.4753   85.9221    7.9494 C.ar    1  UNL1       -0.0025
@<TRIPOS>BOND
     1    11    12    1
     2    12    13    1
     3    12    14    1
     4    12    10    1
     5    10     6    1
     6     6     7    2
     7     6     8   am
     8     8     5    1
     9     5    15    1
    10    15    16    1
    11    16    17   ar
    12    17    18    1
    13    17    19   ar
    14    19    20   ar
    15    20    21   ar
    16    21    22   ar
    17    22    23    1
    18     5     1    1
    19     1     2    2
    20     1     3   am
    21     3    24    1
    22    24    25    1
    23    25    26   ar
    24    26    27   ar
    25    27    28   ar
    26    28    29   ar
    27    29    30   ar
    28    30    31   ar
    29    31    32   ar
    30    32    33   ar
    31    33    34    1
    32    34    37    1
    33    37    38   ar
    34    38    39   ar
    35    39    40   ar
    36    40    41   ar
    37    41    42   ar
    38    34    35    1
    39    35    36    1
    40    22    16   ar
    41    33    25   ar
    42    36    34    1
    43    32    27   ar
    44    42    37   ar
    45     8     9    1
    46     3     4    1
@<TRIPOS>MOLECULE
*****
 42 46 0 0 0
SMALL
GASTEIGER

@<TRIPOS>ATOM
      1 C          64.2294   91.5740   11.3301 C.2     1  UNL1        0.2411
      2 O          63.6327   91.6453   10.5508 O.2     1  UNL1       -0.2733
      3 N          63.8291   90.4815   12.2768 N.am    1  UNL1       -0.2966
      4 H          64.3559   90.3195   13.0926 H       1  UNL1        0.1499
      5 C          65.4325   92.4196   11.6263 C.3     1  UNL1        0.1555
      6 C          66.6043   94.4901   10.5823 C.2     1  UNL1        0.4017
      7 O          67.7885   93.6407   10.2269 O.2     1  UNL1       -0.2264
      8 N          65.4263   93.8795   11.2821 N.am    1  UNL1       -0.2637
      9 H          64.6491   94.4369   11.5154 H       1  UNL1        0.1532
     10 O          66.5981   95.9500   10.2381 O.3     1  UNL1       -0.4419
     11 C          64.8189   96.8313    9.4914 C.3     1  UNL1        0.0437
     12 C          66.1230   96.4003    8.8885 C.3     1  UNL1        0.1378
     13 C          67.4271   95.9693    8.2856 C.3     1  UNL1        0.0437
     14 C          65.6478   96.8506    7.5388 C.3     1  UNL1        0.0437
     15 C          66.6418   91.8051   12.2668 C.3     1  UNL1        0.0585
     16 C          66.9546   92.0899   13.7059 C.ar    1  UNL1        0.0180
     17 C          65.8417   92.3389   14.6803 C.ar    1  UNL1        0.1370
     18 F          64.8763   92.3404   14.4891 F       1  UNL1       -0.2045
     19 C          66.1545   92.6237   16.1193 C.ar    1  UNL1        0.0294
     20 C          67.5803   92.6594   16.5841 C.ar    1  UNL1        0.0031
     21 C          68.6932   92.4104   15.6098 C.ar    1  UNL1        0.0112
     22 C          68.3803   92.1256   14.1707 C.ar    1  UNL1        0.0559
     23 CL         69.4933   91.8765   13.1963 Cl      1  UNL1       -0.0825
     24 C          62.6260   89.6360   11.9807 C.3     1  UNL1        0.1543
     25 C          62.7147   88.1424   12.0862 C.ar    1  UNL1        0.1417
     26 N          63.5967   87.3757   13.0266 N.ar    1  UNL1       -0.2276
     27 C          63.3641   85.9126   12.7915 C.ar    1  UNL1        0.1167
     28 C          63.9537   84.6879   13.4257 C.ar    1  UNL1        0.0238
     29 C          63.5177   83.3256   12.9743 C.ar    1  UNL1        0.0223
     30 C          62.4919   83.1880   11.8885 C.ar    1  UNL1        0.1006
     31 N          61.9022   84.4127   11.2542 N.ar    1  UNL1       -0.2252
     32 C          62.3383   85.7750   11.7057 C.ar    1  UNL1        0.1626
     33 N          61.9370   87.1531   11.2698 N.ar    1  UNL1       -0.2990
     34 C          60.9340   87.4837   10.2046 C.3     1  UNL1        0.0898
     35 C          59.7645   88.1277    9.5209 C.3     1  UNL1        0.0273
     36 C          60.1061   88.5007   10.9330 C.3     1  UNL1        0.0273
     37 C          61.4136   86.5817    9.1063 C.ar    1  UNL1       -0.0037
     38 C          62.8757   86.2750    8.9723 C.ar    1  UNL1       -0.0025
     39 C          63.3553   85.3730    7.8739 C.ar    1  UNL1       -0.0003
     40 C          62.3726   84.7776    6.9096 C.ar    1  UNL1       -0.0000
     41 C          60.9104   85.0843    7.0437 C.ar    1  UNL1       -0.0003
     42 C          60.4309   85.9863    8.1420 C.ar    1  UNL1       -0.0025
@<TRIPOS>BOND
     1    11    12    1
     2    12    13    1
     3    12    14    1
     4    12    10    1
     5    10     6    1
     6     6     7    2
     7     6     8   am
     8     8     5    1
     9     5    15    1
    10    15    16    1
    11    16    17   ar
    12    17    18    1
    13    17    19   ar
    14    19    20   ar
    15    20    21   ar
    16    21    22   ar
    17    22    23    1
    18     5     1    1
    19     1     2    2
    20     1     3   am
    21     3    24    1
    22    24    25    1
    23    25    26   ar
    24    26    27   ar
    25    27    28   ar
    26    28    29   ar
    27    29    30   ar
    28    30    31   ar
    29    31    32   ar
    30    32    33   ar
    31    33    34    1
    32    34    37    1
    33    37    38   ar
    34    38    39   ar
    35    39    40   ar
    36    40    41   ar
    37    41    42   ar
    38    34    35    1
    39    35    36    1
    40    22    16   ar
    41    33    25   ar
    42    36    34    1
    43    32    27   ar
    44    42    37   ar
    45     8     9    1
    46     3     4    1
@<TRIPOS>MOLECULE
*****
 42 46 0 0 0
SMALL
GASTEIGER

@<TRIPOS>ATOM
      1 C          63.4642   87.0147   13.3082 C.2     1  UNL1        0.2411
      2 O          63.8376   86.9536   14.2167 O.2     1  UNL1       -0.2733
      3 N          63.4035   88.4221   12.7930 N.am    1  UNL1       -0.2966
      4 H          63.0468   88.6020   11.8932 H       1  UNL1        0.1499
      5 C          62.9813   85.8813   12.4524 C.3     1  UNL1        0.1555
      6 C          63.1857   83.7037   13.8547 C.2     1  UNL1        0.4017
      7 O          64.6629   83.9277   13.9873 O.2     1  UNL1       -0.2264
      8 N          62.3449   84.6805   13.0872 N.am    1  UNL1       -0.2637
      9 H          61.3753   84.5335   13.0002 H       1  UNL1        0.1532
     10 O          62.5492   82.5029   14.4895 O.3     1  UNL1       -0.4419
     11 C          61.0107   81.0866   14.1332 C.3     1  UNL1        0.0437
     12 C          62.4486   81.2158   13.7259 C.3     1  UNL1        0.1378
     13 C          63.8864   81.3449   13.3187 C.3     1  UNL1        0.0437
     14 C          62.3479   79.9286   12.9623 C.3     1  UNL1        0.0437
     15 C          63.1349   85.9488   10.9618 C.3     1  UNL1        0.0585
     16 C          61.9507   86.2724   10.0997 C.ar    1  UNL1        0.0180
     17 C          60.8133   87.0749   10.6583 C.ar    1  UNL1        0.1370
     18 F          60.7364   87.4388   11.5695 F       1  UNL1       -0.2045
     19 C          59.6292   87.3984    9.7962 C.ar    1  UNL1        0.0294
     20 C          59.5826   86.9195    8.3755 C.ar    1  UNL1        0.0031
     21 C          60.7201   86.1170    7.8169 C.ar    1  UNL1        0.0112
     22 C          61.9041   85.7934    8.6790 C.ar    1  UNL1        0.0559
     23 CL         63.0417   84.9909    8.1204 Cl      1  UNL1       -0.0825
     24 C          63.8863   89.5555   13.6487 C.3     1  UNL1        0.1543
     25 C          64.4179   90.8042   13.0097 C.ar    1  UNL1        0.1417
     26 N          64.3546   91.1432   11.5499 N.ar    1  UNL1       -0.2276
     27 C          65.0036   92.4816   11.3562 C.ar    1  UNL1        0.1167
     28 C          65.2317   93.3188   10.1328 C.ar    1  UNL1        0.0238
     29 C          65.9242   94.6442   10.2494 C.ar    1  UNL1        0.0223
     30 C          66.3886   95.1324   11.5896 C.ar    1  UNL1        0.1006
     31 N          66.1605   94.2952   12.8131 N.ar    1  UNL1       -0.2252
     32 C          65.4680   92.9698   12.6964 C.ar    1  UNL1        0.1626
     33 N          65.1060   91.9331   13.7183 N.ar    1  UNL1       -0.2990
     34 C          65.3834   92.0115   15.1903 C.3     1  UNL1        0.0898
     35 C          65.1500   91.9878   16.6718 C.3     1  UNL1        0.0273
     36 C          64.0091   91.7444   15.7290 C.3     1  UNL1        0.0273
     37 C          66.8539   92.3059   15.1629 C.ar    1  UNL1       -0.0037
     38 C          67.7484   91.5702   14.2098 C.ar    1  UNL1       -0.0025
     39 C          69.2190   91.8646   14.1823 C.ar    1  UNL1       -0.0003
     40 C          69.7950   92.8947   15.1082 C.ar    1  UNL1       -0.0000
     41 C          68.9005   93.6304   16.0614 C.ar    1  UNL1       -0.0003
     42 C          67.4299   93.3360   16.0888 C.ar    1  UNL1       -0.0025
@<TRIPOS>BOND
     1    11    12    1
     2    12    13    1
     3    12    14    1
     4    12    10    1
     5    10     6    1
     6     6     7    2
     7     6     8   am
     8     8     5    1
     9     5    15    1
    10    15    16    1
    11    16    17   ar
    12    17    18    1
    13    17    19   ar
    14    19    20   ar
    15    20    21   ar
    16    21    22   ar
    17    22    23    1
    18     5     1    1
    19     1     2    2
    20     1     3   am
    21     3    24    1
    22    24    25    1
    23    25    26   ar
    24    26    27   ar
    25    27    28   ar
    26    28    29   ar
    27    29    30   ar
    28    30    31   ar
    29    31    32   ar
    30    32    33   ar
    31    33    34    1
    32    34    37    1
    33    37    38   ar
    34    38    39   ar
    35    39    40   ar
    36    40    41   ar
    37    41    42   ar
    38    34    35    1
    39    35    36    1
    40    22    16   ar
    41    33    25   ar
    42    36    34    1
    43    32    27   ar
    44    42    37   ar
    45     8     9    1
    46     3     4    1
@<TRIPOS>MOLECULE
*****
 42 46 0 0 0
SMALL
GASTEIGER

@<TRIPOS>ATOM
      1 C          64.2709   91.0926   12.2658 C.2     1  UNL1        0.2411
      2 O          63.7215   91.3656   11.4963 O.2     1  UNL1       -0.2733
      3 N          63.9835   89.6935   12.7240 N.am    1  UNL1       -0.2966
      4 H          64.4756   89.3149   13.4880 H       1  UNL1        0.1499
      5 C          65.3081   91.9148   12.9717 C.3     1  UNL1        0.1555
      6 C          66.5256   93.6012   11.4148 C.2     1  UNL1        0.4017
      7 O          67.2208   92.4640   10.7267 O.2     1  UNL1       -0.2264
      8 N          65.5692   93.3266   12.5373 N.am    1  UNL1       -0.2637
      9 H          65.1129   94.0729   12.9890 H       1  UNL1        0.1532
     10 O          66.7868   95.0129   10.9805 O.3     1  UNL1       -0.4419
     11 C          65.2114   95.9828    9.9424 C.3     1  UNL1        0.0437
     12 C          66.5454   95.4161    9.5560 C.3     1  UNL1        0.1378
     13 C          67.8794   94.8495    9.1696 C.3     1  UNL1        0.0437
     14 C          66.3041   95.8194    8.1315 C.3     1  UNL1        0.0437
     15 C          66.0841   91.3252   14.1119 C.3     1  UNL1        0.0585
     16 C          67.2662   92.0585   14.6732 C.ar    1  UNL1        0.0180
     17 C          68.5836   92.0171   13.9572 C.ar    1  UNL1        0.1370
     18 F          68.7872   91.5446   13.1183 F       1  UNL1       -0.2045
     19 C          69.7656   92.7504   14.5185 C.ar    1  UNL1        0.0294
     20 C          69.6302   93.5250   15.7959 C.ar    1  UNL1        0.0031
     21 C          68.3128   93.5664   16.5119 C.ar    1  UNL1        0.0112
     22 C          67.1308   92.8331   15.9506 C.ar    1  UNL1        0.0559
     23 CL         65.8133   92.8745   16.6666 Cl      1  UNL1       -0.0825
     24 C          62.9464   88.8713   12.0181 C.3     1  UNL1        0.1543
     25 C          62.9483   87.3781   12.1608 C.ar    1  UNL1        0.1417
     26 N          63.5373   86.6021   13.3014 N.ar    1  UNL1       -0.2276
     27 C          63.3147   85.1431   13.0334 C.ar    1  UNL1        0.1167
     28 C          63.6797   83.9128   13.8100 C.ar    1  UNL1        0.0238
     29 C          63.3182   82.5569   13.2804 C.ar    1  UNL1        0.0223
     30 C          62.5916   82.4311   11.9742 C.ar    1  UNL1        0.1006
     31 N          62.2266   83.6614   11.1975 N.ar    1  UNL1       -0.2252
     32 C          62.5881   85.0173   11.7271 C.ar    1  UNL1        0.1626
     33 N          62.3617   86.3986   11.1879 N.ar    1  UNL1       -0.2990
     34 C          61.6701   86.7404    9.9015 C.3     1  UNL1        0.0898
     35 C          61.2542   86.6676    8.4621 C.3     1  UNL1        0.0273
     36 C          62.2239   85.6652    9.0142 C.3     1  UNL1        0.0273
     37 C          60.8760   87.9343   10.3419 C.ar    1  UNL1       -0.0037
     38 C          61.0233   89.2408    9.6199 C.ar    1  UNL1       -0.0025
     39 C          60.2292   90.4348   10.0604 C.ar    1  UNL1       -0.0003
     40 C          59.2878   90.3221   11.2227 C.ar    1  UNL1       -0.0000
     41 C          59.1405   89.0155   11.9447 C.ar    1  UNL1       -0.0003
     42 C          59.9346   87.8216   11.5043 C.ar    1  UNL1       -0.0025
@<TRIPOS>BOND
     1    11    12    1
     2    12    13    1
     3    12    14    1
     4    12    10    1
     5    10     6    1
     6     6     7    2
     7     6     8   am
     8     8     5    1
     9     5    15    1
    10    15    16    1
    11    16    17   ar
    12    17    18    1
    13    17    19   ar
    14    19    20   ar
    15    20    21   ar
    16    21    22   ar
    17    22    23    1
    18     5     1    1
    19     1     2    2
    20     1     3   am
    21     3    24    1
    22    24    25    1
    23    25    26   ar
    24    26    27   ar
    25    27    28   ar
    26    28    29   ar
    27    29    30   ar
    28    30    31   ar
    29    31    32   ar
    30    32    33   ar
    31    33    34    1
    32    34    37    1
    33    37    38   ar
    34    38    39   ar
    35    39    40   ar
    36    40    41   ar
    37    41    42   ar
    38    34    35    1
    39    35    36    1
    40    22    16   ar
    41    33    25   ar
    42    36    34    1
    43    32    27   ar
    44    42    37   ar
    45     8     9    1
    46     3     4    1
@<TRIPOS>MOLECULE
*****
 42 46 0 0 0
SMALL
GASTEIGER

@<TRIPOS>ATOM
      1 C          62.7627   90.1394   11.3804 C.2     1  UNL1        0.2411
      2 O          62.2363   90.6123   12.0642 O.2     1  UNL1       -0.2733
      3 N          63.8963   90.9607   10.8415 N.am    1  UNL1       -0.2966
      4 H          64.4903   90.5870   10.1511 H       1  UNL1        0.1499
      5 C          62.5343   88.7484   10.8673 C.3     1  UNL1        0.1555
      6 C          63.2385   87.4960   13.0319 C.2     1  UNL1        0.4017
      7 O          64.3173   88.5110   13.2682 O.2     1  UNL1       -0.2264
      8 N          62.3470   87.6147   11.8314 N.am    1  UNL1       -0.2637
      9 H          61.6389   86.9485   11.6762 H       1  UNL1        0.1532
     10 O          63.0512   86.3623   13.9960 O.3     1  UNL1       -0.4419
     11 C          63.3889   84.5504   12.9459 C.3     1  UNL1        0.0437
     12 C          64.0726   85.2665   14.0726 C.3     1  UNL1        0.1378
     13 C          64.7563   85.9826   15.1994 C.3     1  UNL1        0.0437
     14 C          65.0941   84.1706   14.1493 C.3     1  UNL1        0.0437
     15 C          62.4931   88.4913    9.3900 C.3     1  UNL1        0.0585
     16 C          61.2842   87.8522    8.7734 C.ar    1  UNL1        0.0180
     17 C          60.0381   88.6584    8.5561 C.ar    1  UNL1        0.1370
     18 F          59.9005   89.6073    8.7776 F       1  UNL1       -0.2045
     19 C          58.8294   88.0192    7.9395 C.ar    1  UNL1        0.0294
     20 C          58.8666   86.5738    7.5402 C.ar    1  UNL1        0.0031
     21 C          60.1127   85.7676    7.7576 C.ar    1  UNL1        0.0112
     22 C          61.3215   86.4067    8.3742 C.ar    1  UNL1        0.0559
     23 CL         62.5676   85.6005    8.5915 Cl      1  UNL1       -0.0825
     24 C          64.1248   92.3516   11.3546 C.3     1  UNL1        0.1543
     25 C          65.0744   92.5848   12.4921 C.ar    1  UNL1        0.1417
     26 N          65.1416   91.7892   13.7619 N.ar    1  UNL1       -0.2276
     27 C          66.2322   92.3673   14.6141 C.ar    1  UNL1        0.1167
     28 C          66.7511   91.9928   15.9707 C.ar    1  UNL1        0.0238
     29 C          67.8769   92.7713   16.5842 C.ar    1  UNL1        0.0223
     30 C          68.4838   93.9243   15.8411 C.ar    1  UNL1        0.1006
     31 N          67.9649   94.2988   14.4845 N.ar    1  UNL1       -0.2252
     32 C          66.8391   93.5203   13.8710 C.ar    1  UNL1        0.1626
     33 N          66.1236   93.6547   12.5595 N.ar    1  UNL1       -0.2990
     34 C          66.4074   94.6793   11.5013 C.3     1  UNL1        0.0898
     35 C          66.4224   95.9951   10.7813 C.3     1  UNL1        0.0273
     36 C          65.7322   95.8738   12.1075 C.3     1  UNL1        0.0273
     37 C          67.1811   93.8407   10.5276 C.ar    1  UNL1       -0.0037
     38 C          67.5253   94.3882    9.1743 C.ar    1  UNL1       -0.0025
     39 C          68.2990   93.5496    8.2005 C.ar    1  UNL1       -0.0003
     40 C          68.7285   92.1634    8.5803 C.ar    1  UNL1       -0.0000
     41 C          68.3843   91.6159    9.9338 C.ar    1  UNL1       -0.0003
     42 C          67.6106   92.4545   10.9074 C.ar    1  UNL1       -0.0025
@<TRIPOS>BOND
     1    11    12    1
     2    12    13    1
     3    12    14    1
     4    12    10    1
     5    10     6    1
     6     6     7    2
     7     6     8   am
     8     8     5    1
     9     5    15    1
    10    15    16    1
    11    16    17   ar
    12    17    18    1
    13    17    19   ar
    14    19    20   ar
    15    20    21   ar
    16    21    22   ar
    17    22    23    1
    18     5     1    1
    19     1     2    2
    20     1     3   am
    21     3    24    1
    22    24    25    1
    23    25    26   ar
    24    26    27   ar
    25    27    28   ar
    26    28    29   ar
    27    29    30   ar
    28    30    31   ar
    29    31    32   ar
    30    32    33   ar
    31    33    34    1
    32    34    37    1
    33    37    38   ar
    34    38    39   ar
    35    39    40   ar
    36    40    41   ar
    37    41    42   ar
    38    34    35    1
    39    35    36    1
    40    22    16   ar
    41    33    25   ar
    42    36    34    1
    43    32    27   ar
    44    42    37   ar
    45     8     9    1
    46     3     4    1
