@<TRIPOS>MOLECULE
*****
 27 29 0 0 0
SMALL
GASTEIGER

@<TRIPOS>ATOM
      1 C          63.8438   86.1091   13.9779 C.ar    1  UNL1        0.1041
      2 C          64.3771   87.1838   14.8782 C.ar    1  UNL1        0.0212
      3 C          64.2601   88.6245   14.4772 C.ar    1  UNL1        0.0385
      4 C          63.6098   88.9905   13.1760 C.ar    1  UNL1        0.1413
      5 C          63.0765   87.9157   12.2758 C.ar    1  UNL1        0.0176
      6 C          63.1935   86.4751   12.6767 C.ar    1  UNL1        0.0259
      7 C          62.5797   85.6407   11.5917 C.3     1  UNL1        0.1956
      8 O          62.4798   84.1441   11.5803 O.3     1  UNL1       -0.3752
      9 C          62.0834   86.5657   10.5202 C.3     1  UNL1        0.2958
     10 F          61.6539   85.2976    9.8440 F       1  UNL1       -0.2010
     11 F          61.4973   87.2256    9.3074 F       1  UNL1       -0.2010
     12 C          62.3905   87.9717   10.9430 C.3     1  UNL1        0.0986
     13 H          62.8766   83.7873   12.3904 H       1  UNL1        0.2110
     14 C          64.0777   83.2277   14.7798 C.3     1  UNL1        0.1816
     15 S          63.9608   84.6684   14.3788 S.O2    1  UNL1        0.0102
     16 O          62.4924   84.6339   14.6834 O.2     1  UNL1       -0.1686
     17 O          65.4291   84.7029   14.0742 O.2     1  UNL1       -0.1686
     18 O          63.4928   90.4311   12.7751 O.3     1  UNL1       -0.4537
     19 C          64.5855   91.3978   13.1238 C.ar    1  UNL1        0.1482
     20 C          65.1920   91.3813   14.4956 C.ar    1  UNL1        0.0671
     21 C          66.2847   92.3480   14.8442 C.ar    1  UNL1        0.1439
     22 F          66.8911   92.3315   16.2161 F       1  UNL1       -0.2040
     23 C          66.7710   93.3311   13.8211 C.ar    1  UNL1        0.0401
     24 C          66.1645   93.3476   12.4492 C.ar    1  UNL1        0.0737
     25 C          65.0718   92.3810   12.1005 C.ar    1  UNL1        0.0479
     26 C          66.6509   94.3308   11.4260 C.1     1  UNL1        0.1006
     27 N          67.1372   95.3139   10.4028 N.1     1  UNL1       -0.1908
@<TRIPOS>BOND
     1    14    15    1
     2    15    16    2
     3    15    17    2
     4    15     1    1
     5     1     2   ar
     6     2     3   ar
     7     3     4   ar
     8     4    18    1
     9    18    19    1
    10    19    20   ar
    11    20    21   ar
    12    21    22    1
    13    21    23   ar
    14    23    24   ar
    15    24    26    1
    16    26    27    3
    17    24    25   ar
    18     4     5   ar
    19     5     6   ar
    20     6     7    1
    21     7     8    1
    22     7     9    1
    23     9    10    1
    24     9    11    1
    25     9    12    1
    26     6     1   ar
    27    25    19   ar
    28    12     5    1
    29     8    13    1
@<TRIPOS>MOLECULE
*****
 27 29 0 0 0
SMALL
GASTEIGER

@<TRIPOS>ATOM
      1 C          65.0332   92.3760   11.0978 C.ar    1  UNL1        0.1041
      2 C          64.1206   91.9145   10.0005 C.ar    1  UNL1        0.0212
      3 C          63.0099   90.9529   10.3034 C.ar    1  UNL1        0.0385
      4 C          62.8119   90.4528   11.7036 C.ar    1  UNL1        0.1413
      5 C          63.7245   90.9142   12.8009 C.ar    1  UNL1        0.0176
      6 C          64.8351   91.8759   12.4980 C.ar    1  UNL1        0.0259
      7 C          65.5707   92.1518   13.7759 C.3     1  UNL1        0.1956
      8 O          66.7545   93.0594   13.9334 O.3     1  UNL1       -0.3752
      9 C          64.9146   91.3607   14.8685 C.3     1  UNL1        0.2958
     10 F          65.9644   91.9876   15.7374 F       1  UNL1       -0.2010
     11 F          64.4780   90.7007   16.1427 F       1  UNL1       -0.2010
     12 C          63.7736   90.5959   14.2659 C.3     1  UNL1        0.0986
     13 H          66.9796   93.4492   13.0742 H       1  UNL1        0.2110
     14 C          67.2545   94.2992   10.4921 C.3     1  UNL1        0.1816
     15 S          66.1438   93.3376   10.7950 S.O2    1  UNL1        0.0102
     16 O          65.1504   94.4583   10.7101 O.2     1  UNL1       -0.1686
     17 O          67.1373   92.2169   10.8798 O.2     1  UNL1       -0.1686
     18 O          61.7012   89.4912   12.0065 O.3     1  UNL1       -0.4537
     19 C          61.4099   88.3610   11.0643 C.ar    1  UNL1        0.1482
     20 C          60.2314   88.4402   10.1396 C.ar    1  UNL1        0.0671
     21 C          59.9401   87.3099    9.1974 C.ar    1  UNL1        0.1439
     22 F          58.7617   87.3891    8.2727 F       1  UNL1       -0.2040
     23 C          60.8272   86.1005    9.1798 C.ar    1  UNL1        0.0401
     24 C          62.0057   86.0213   10.1045 C.ar    1  UNL1        0.0737
     25 C          62.2970   87.1515   11.0467 C.ar    1  UNL1        0.0479
     26 C          62.8928   84.8118   10.0870 C.1     1  UNL1        0.1006
     27 N          63.7798   83.6024   10.0694 N.1     1  UNL1       -0.1908
@<TRIPOS>BOND
     1    14    15    1
     2    15    16    2
     3    15    17    2
     4    15     1    1
     5     1     2   ar
     6     2     3   ar
     7     3     4   ar
     8     4    18    1
     9    18    19    1
    10    19    20   ar
    11    20    21   ar
    12    21    22    1
    13    21    23   ar
    14    23    24   ar
    15    24    26    1
    16    26    27    3
    17    24    25   ar
    18     4     5   ar
    19     5     6   ar
    20     6     7    1
    21     7     8    1
    22     7     9    1
    23     9    10    1
    24     9    11    1
    25     9    12    1
    26     6     1   ar
    27    25    19   ar
    28    12     5    1
    29     8    13    1
@<TRIPOS>MOLECULE
*****
 27 29 0 0 0
SMALL
GASTEIGER

@<TRIPOS>ATOM
      1 C          63.8183   86.2474   13.9154 C.ar    1  UNL1        0.1041
      2 C          64.3506   87.2986   14.8436 C.ar    1  UNL1        0.0212
      3 C          64.2109   88.7500   14.4920 C.ar    1  UNL1        0.0385
      4 C          63.5389   89.1504   13.2121 C.ar    1  UNL1        0.1413
      5 C          63.0066   88.0992   12.2839 C.ar    1  UNL1        0.0176
      6 C          63.1463   86.6477   12.6355 C.ar    1  UNL1        0.0259
      7 C          62.5281   85.8418   11.5317 C.3     1  UNL1        0.1956
      8 O          62.4462   84.3452   11.4722 O.3     1  UNL1       -0.3752
      9 C          62.0064   86.7951   10.4979 C.3     1  UNL1        0.2958
     10 F          61.5832   85.5446    9.7858 F       1  UNL1       -0.2010
     11 F          61.3962   87.4871    9.3152 F       1  UNL1       -0.2010
     12 C          62.3021   88.1903   10.9627 C.3     1  UNL1        0.0986
     13 H          62.8580   83.9671   12.2649 H       1  UNL1        0.2110
     14 C          64.0977   83.3444   14.6187 C.3     1  UNL1        0.1816
     15 S          63.9580   84.7959   14.2670 S.O2    1  UNL1        0.0102
     16 O          65.4388   84.8845   14.0446 O.2     1  UNL1       -0.1686
     17 O          62.4773   84.7072   14.4895 O.2     1  UNL1       -0.1686
     18 O          63.3991   90.6019   12.8605 O.3     1  UNL1       -0.4537
     19 C          64.6209   91.4291   12.5906 C.ar    1  UNL1        0.1482
     20 C          64.8445   92.0142   11.2276 C.ar    1  UNL1        0.0671
     21 C          66.0664   92.8415   10.9578 C.ar    1  UNL1        0.1439
     22 F          66.2900   93.4265    9.5948 F       1  UNL1       -0.2040
     23 C          67.0645   93.0838   12.0510 C.ar    1  UNL1        0.0401
     24 C          66.8408   92.4988   13.4140 C.ar    1  UNL1        0.0737
     25 C          65.6191   91.6715   13.6838 C.ar    1  UNL1        0.0479
     26 C          67.8390   92.7411   14.5072 C.1     1  UNL1        0.1006
     27 N          68.8371   92.9834   15.6003 N.1     1  UNL1       -0.1908
@<TRIPOS>BOND
     1    14    15    1
     2    15    16    2
     3    15    17    2
     4    15     1    1
     5     1     2   ar
     6     2     3   ar
     7     3     4   ar
     8     4    18    1
     9    18    19    1
    10    19    20   ar
    11    20    21   ar
    12    21    22    1
    13    21    23   ar
    14    23    24   ar
    15    24    26    1
    16    26    27    3
    17    24    25   ar
    18     4     5   ar
    19     5     6   ar
    20     6     7    1
    21     7     8    1
    22     7     9    1
    23     9    10    1
    24     9    11    1
    25     9    12    1
    26     6     1   ar
    27    25    19   ar
    28    12     5    1
    29     8    13    1
@<TRIPOS>MOLECULE
*****
 27 29 0 0 0
SMALL
GASTEIGER

@<TRIPOS>ATOM
      1 C          61.5861   88.0639    9.9934 C.ar    1  UNL1        0.1041
      2 C          61.3573   89.5180    9.7050 C.ar    1  UNL1        0.0212
      3 C          61.8954   90.5615   10.6385 C.ar    1  UNL1        0.0385
      4 C          62.6623   90.1510   11.8605 C.ar    1  UNL1        0.1413
      5 C          62.8911   88.6969   12.1489 C.ar    1  UNL1        0.0176
      6 C          62.3530   87.6534   11.2154 C.ar    1  UNL1        0.0259
      7 C          62.7334   86.3070   11.7564 C.3     1  UNL1        0.1956
      8 O          62.3993   84.9819   11.1380 O.3     1  UNL1       -0.3752
      9 C          63.5067   86.5184   13.0242 C.3     1  UNL1        0.2958
     10 F          63.5738   85.0201   13.0476 F       1  UNL1       -0.2010
     11 F          64.2939   86.4167   14.2969 F       1  UNL1       -0.2010
     12 C          63.6041   87.9955   13.2668 C.3     1  UNL1        0.0986
     13 H          61.8925   85.1239   10.3232 H       1  UNL1        0.2110
     14 C          60.5098   85.9768    8.1264 C.3     1  UNL1        0.1816
     15 S          61.0480   87.0203    9.0599 S.O2    1  UNL1        0.0102
     16 O          59.6478   87.4159    9.4248 O.2     1  UNL1       -0.1686
     17 O          62.4481   86.6248    8.6950 O.2     1  UNL1       -0.1686
     18 O          63.2004   91.1945   12.7940 O.3     1  UNL1       -0.4537
     19 C          64.6513   91.5713   12.7415 C.ar    1  UNL1        0.1482
     20 C          65.5333   91.3261   13.9298 C.ar    1  UNL1        0.0671
     21 C          66.9843   91.7030   13.8773 C.ar    1  UNL1        0.1439
     22 F          67.8663   91.4578   15.0656 F       1  UNL1       -0.2040
     23 C          67.5532   92.3250   12.6366 C.ar    1  UNL1        0.0401
     24 C          66.6712   92.5701   11.4483 C.ar    1  UNL1        0.0737
     25 C          65.2203   92.1933   11.5008 C.ar    1  UNL1        0.0479
     26 C          67.2402   93.1921   10.2075 C.1     1  UNL1        0.1006
     27 N          67.8092   93.8141    8.9668 N.1     1  UNL1       -0.1908
@<TRIPOS>BOND
     1    14    15    1
     2    15    16    2
     3    15    17    2
     4    15     1    1
     5     1     2   ar
     6     2     3   ar
     7     3     4   ar
     8     4    18    1
     9    18    19    1
    10    19    20   ar
    11    20    21   ar
    12    21    22    1
    13    21    23   ar
    14    23    24   ar
    15    24    26    1
    16    26    27    3
    17    24    25   ar
    18     4     5   ar
    19     5     6   ar
    20     6     7    1
    21     7     8    1
    22     7     9    1
    23     9    10    1
    24     9    11    1
    25     9    12    1
    26     6     1   ar
    27    25    19   ar
    28    12     5    1
    29     8    13    1
@<TRIPOS>MOLECULE
*****
 27 29 0 0 0
SMALL
GASTEIGER

@<TRIPOS>ATOM
      1 C          61.4837   87.9795    9.8607 C.ar    1  UNL1        0.1041
      2 C          61.2618   89.4369    9.5837 C.ar    1  UNL1        0.0212
      3 C          61.8103   90.4707   10.5220 C.ar    1  UNL1        0.0385
      4 C          62.5807   90.0471   11.7373 C.ar    1  UNL1        0.1413
      5 C          62.8026   88.5897   12.0143 C.ar    1  UNL1        0.0176
      6 C          62.2541   87.5559   11.0760 C.ar    1  UNL1        0.0259
      7 C          62.6295   86.2036   11.6055 C.3     1  UNL1        0.1956
      8 O          62.2848   84.8849   10.9794 O.3     1  UNL1       -0.3752
      9 C          63.4100   86.4016   12.8710 C.3     1  UNL1        0.2958
     10 F          63.4687   84.9028   12.8835 F       1  UNL1       -0.2010
     11 F          64.2027   86.2863   14.1392 F       1  UNL1       -0.2010
     12 C          63.5170   87.8763   13.1237 C.3     1  UNL1        0.0986
     13 H          61.7750   85.0356   10.1680 H       1  UNL1        0.2110
     14 C          60.3867   85.9120    7.9841 C.3     1  UNL1        0.1816
     15 S          60.9352   86.9457    8.9224 S.O2    1  UNL1        0.0102
     16 O          62.3308   86.5129    8.5834 O.2     1  UNL1       -0.1686
     17 O          59.5396   87.3786    9.2613 O.2     1  UNL1       -0.1686
     18 O          63.1292   91.0809   12.6756 O.3     1  UNL1       -0.4537
     19 C          64.5152   91.6177   12.4730 C.ar    1  UNL1        0.1482
     20 C          64.9410   92.1031   11.1191 C.ar    1  UNL1        0.0671
     21 C          66.3270   92.6399   10.9165 C.ar    1  UNL1        0.1439
     22 F          66.7528   93.1253    9.5626 F       1  UNL1       -0.2040
     23 C          67.2871   92.6912   12.0678 C.ar    1  UNL1        0.0401
     24 C          66.8612   92.2058   13.4217 C.ar    1  UNL1        0.0737
     25 C          65.4753   91.6691   13.6243 C.ar    1  UNL1        0.0479
     26 C          67.8214   92.2572   14.5731 C.1     1  UNL1        0.1006
     27 N          68.7815   92.3086   15.7243 N.1     1  UNL1       -0.1908
@<TRIPOS>BOND
     1    14    15    1
     2    15    16    2
     3    15    17    2
     4    15     1    1
     5     1     2   ar
     6     2     3   ar
     7     3     4   ar
     8     4    18    1
     9    18    19    1
    10    19    20   ar
    11    20    21   ar
    12    21    22    1
    13    21    23   ar
    14    23    24   ar
    15    24    26    1
    16    26    27    3
    17    24    25   ar
    18     4     5   ar
    19     5     6   ar
    20     6     7    1
    21     7     8    1
    22     7     9    1
    23     9    10    1
    24     9    11    1
    25     9    12    1
    26     6     1   ar
    27    25    19   ar
    28    12     5    1
    29     8    13    1
@<TRIPOS>MOLECULE
*****
 27 29 0 0 0
SMALL
GASTEIGER

@<TRIPOS>ATOM
      1 C          65.3482   92.7383   11.1310 C.ar    1  UNL1        0.1041
      2 C          64.4525   92.0915   10.1164 C.ar    1  UNL1        0.0212
      3 C          63.4815   91.0302   10.5414 C.ar    1  UNL1        0.0385
      4 C          63.4061   90.6156   11.9809 C.ar    1  UNL1        0.1413
      5 C          64.3018   91.2623   12.9955 C.ar    1  UNL1        0.0176
      6 C          65.2729   92.3236   12.5706 C.ar    1  UNL1        0.0259
      7 C          66.0234   92.7790   13.7868 C.3     1  UNL1        0.1956
      8 O          67.0933   93.8299   13.8205 O.3     1  UNL1       -0.3752
      9 C          65.5162   91.9992   14.9635 C.3     1  UNL1        0.2958
     10 F          66.5180   92.8090   15.7321 F       1  UNL1       -0.2010
     11 F          65.2184   91.3886   16.3008 F       1  UNL1       -0.2010
     12 C          64.4522   91.0618   14.4744 C.3     1  UNL1        0.0986
     13 H          67.2322   94.1786   12.9261 H       1  UNL1        0.2110
     14 C          67.2903   94.8610   10.2811 C.3     1  UNL1        0.1816
     15 S          66.3193   93.7996   10.7060 S.O2    1  UNL1        0.0102
     16 O          65.1918   94.7810   10.5809 O.2     1  UNL1       -0.1686
     17 O          67.4467   92.8182   10.8312 O.2     1  UNL1       -0.1686
     18 O          62.4351   89.5542   12.4059 O.3     1  UNL1       -0.4537
     19 C          61.9691   88.5254   11.4188 C.ar    1  UNL1        0.1482
     20 C          62.3686   87.0894   11.5871 C.ar    1  UNL1        0.0671
     21 C          61.9025   86.0606   10.6000 C.ar    1  UNL1        0.1439
     22 F          62.3021   84.6246   10.7683 F       1  UNL1       -0.2040
     23 C          61.0369   86.4678    9.4447 C.ar    1  UNL1        0.0401
     24 C          60.6373   87.9038    9.2764 C.ar    1  UNL1        0.0737
     25 C          61.1034   88.9326   10.2634 C.ar    1  UNL1        0.0479
     26 C          59.7717   88.3109    8.1209 C.1     1  UNL1        0.1006
     27 N          58.9061   88.7180    6.9655 N.1     1  UNL1       -0.1908
@<TRIPOS>BOND
     1    14    15    1
     2    15    16    2
     3    15    17    2
     4    15     1    1
     5     1     2   ar
     6     2     3   ar
     7     3     4   ar
     8     4    18    1
     9    18    19    1
    10    19    20   ar
    11    20    21   ar
    12    21    22    1
    13    21    23   ar
    14    23    24   ar
    15    24    26    1
    16    26    27    3
    17    24    25   ar
    18     4     5   ar
    19     5     6   ar
    20     6     7    1
    21     7     8    1
    22     7     9    1
    23     9    10    1
    24     9    11    1
    25     9    12    1
    26     6     1   ar
    27    25    19   ar
    28    12     5    1
    29     8    13    1
@<TRIPOS>MOLECULE
*****
 27 29 0 0 0
SMALL
GASTEIGER

@<TRIPOS>ATOM
      1 C          61.3596   86.6385   10.0788 C.ar    1  UNL1        0.1041
      2 C          61.7022   85.3198   10.7060 C.ar    1  UNL1        0.0212
      3 C          62.6360   85.2670   11.8787 C.ar    1  UNL1        0.0385
      4 C          63.2272   86.5330   12.4242 C.ar    1  UNL1        0.1413
      5 C          62.8846   87.8518   11.7970 C.ar    1  UNL1        0.0176
      6 C          61.9508   87.9045   10.6243 C.ar    1  UNL1        0.0259
      7 C          61.7988   89.3402   10.2170 C.3     1  UNL1        0.1956
      8 O          60.9551   89.8515    9.0871 O.3     1  UNL1       -0.3752
      9 C          62.6387   90.1747   11.1380 C.3     1  UNL1        0.2958
     10 F          62.1205   91.3190   10.3182 F       1  UNL1       -0.2010
     11 F          63.3702   91.2484   11.8876 F       1  UNL1       -0.2010
     12 C          63.3097   89.2548   12.1144 C.3     1  UNL1        0.0986
     13 H          60.5140   89.1063    8.6500 H       1  UNL1        0.2110
     14 C          59.4919   86.7440    7.7334 C.3     1  UNL1        0.1816
     15 S          60.4258   86.6913    8.9061 S.O2    1  UNL1        0.0102
     16 O          59.4265   87.4419    9.7356 O.2     1  UNL1       -0.1686
     17 O          61.4250   85.9407    8.0766 O.2     1  UNL1       -0.1686
     18 O          64.1610   86.4803   13.5969 O.3     1  UNL1       -0.4537
     19 C          63.7745   87.1285   14.8931 C.ar    1  UNL1        0.1482
     20 C          63.2959   86.2872   16.0390 C.ar    1  UNL1        0.0671
     21 C          62.9094   86.9355   17.3354 C.ar    1  UNL1        0.1439
     22 F          62.4308   86.0941   18.4812 F       1  UNL1       -0.2040
     23 C          63.0015   88.4250   17.4857 C.ar    1  UNL1        0.0401
     24 C          63.4801   89.2664   16.3398 C.ar    1  UNL1        0.0737
     25 C          63.8666   88.6181   15.0436 C.ar    1  UNL1        0.0479
     26 C          63.5722   90.7560   16.4903 C.1     1  UNL1        0.1006
     27 N          63.6643   92.2456   16.6406 N.1     1  UNL1       -0.1908
@<TRIPOS>BOND
     1    14    15    1
     2    15    16    2
     3    15    17    2
     4    15     1    1
     5     1     2   ar
     6     2     3   ar
     7     3     4   ar
     8     4    18    1
     9    18    19    1
    10    19    20   ar
    11    20    21   ar
    12    21    22    1
    13    21    23   ar
    14    23    24   ar
    15    24    26    1
    16    26    27    3
    17    24    25   ar
    18     4     5   ar
    19     5     6   ar
    20     6     7    1
    21     7     8    1
    22     7     9    1
    23     9    10    1
    24     9    11    1
    25     9    12    1
    26     6     1   ar
    27    25    19   ar
    28    12     5    1
    29     8    13    1
@<TRIPOS>MOLECULE
*****
 27 29 0 0 0
SMALL
GASTEIGER

@<TRIPOS>ATOM
      1 C          60.4302   87.3365    8.3466 C.ar    1  UNL1        0.1041
      2 C          60.7545   85.9612    7.8433 C.ar    1  UNL1        0.0212
      3 C          61.7653   85.1183    8.5629 C.ar    1  UNL1        0.0385
      4 C          62.4517   85.6507    9.7858 C.ar    1  UNL1        0.1413
      5 C          62.1274   87.0260   10.2890 C.ar    1  UNL1        0.0176
      6 C          61.1166   87.8689    9.5694 C.ar    1  UNL1        0.0259
      7 C          61.0031   89.1769   10.2948 C.3     1  UNL1        0.1956
      8 O          60.1063   90.3189    9.9184 O.3     1  UNL1       -0.3752
      9 C          61.9437   89.1424   11.4628 C.3     1  UNL1        0.2958
     10 F          61.4227   90.5250   11.7218 F       1  UNL1       -0.2010
     11 F          62.7754   89.3969   12.6848 F       1  UNL1       -0.2010
     12 C          62.6385   87.8131   11.4591 C.3     1  UNL1        0.0986
     13 H          59.6014   90.0852    9.1238 H       1  UNL1        0.2110
     14 C          58.4086   89.0223    6.9074 C.3     1  UNL1        0.1816
     15 S          59.4194   88.1794    7.6270 S.O2    1  UNL1        0.0102
     16 O          60.4468   89.2572    7.4463 O.2     1  UNL1       -0.1686
     17 O          58.3919   87.1016    7.8077 O.2     1  UNL1       -0.1686
     18 O          63.4625   84.8078   10.5053 O.3     1  UNL1       -0.4537
     19 C          63.0610   84.0333   11.7255 C.ar    1  UNL1        0.1482
     20 C          62.8246   82.5550   11.6314 C.ar    1  UNL1        0.0671
     21 C          62.4231   81.7805   12.8516 C.ar    1  UNL1        0.1439
     22 F          62.1867   80.3022   12.7575 F       1  UNL1       -0.2040
     23 C          62.2579   82.4842   14.1659 C.ar    1  UNL1        0.0401
     24 C          62.4942   83.9625   14.2601 C.ar    1  UNL1        0.0737
     25 C          62.8958   84.7370   13.0399 C.ar    1  UNL1        0.0479
     26 C          62.3291   84.6662   15.5744 C.1     1  UNL1        0.1006
     27 N          62.1639   85.3700   16.8887 N.1     1  UNL1       -0.1908
@<TRIPOS>BOND
     1    14    15    1
     2    15    16    2
     3    15    17    2
     4    15     1    1
     5     1     2   ar
     6     2     3   ar
     7     3     4   ar
     8     4    18    1
     9    18    19    1
    10    19    20   ar
    11    20    21   ar
    12    21    22    1
    13    21    23   ar
    14    23    24   ar
    15    24    26    1
    16    26    27    3
    17    24    25   ar
    18     4     5   ar
    19     5     6   ar
    20     6     7    1
    21     7     8    1
    22     7     9    1
    23     9    10    1
    24     9    11    1
    25     9    12    1
    26     6     1   ar
    27    25    19   ar
    28    12     5    1
    29     8    13    1
@<TRIPOS>MOLECULE
*****
 27 29 0 0 0
SMALL
GASTEIGER

@<TRIPOS>ATOM
      1 C          63.7556   88.5843   13.6109 C.ar    1  UNL1        0.1041
      2 C          64.4829   88.2094   14.8681 C.ar    1  UNL1        0.0212
      3 C          64.6690   86.7642   15.2244 C.ar    1  UNL1        0.0385
      4 C          64.1278   85.6940   14.3235 C.ar    1  UNL1        0.1413
      5 C          63.4005   86.0689   13.0664 C.ar    1  UNL1        0.0176
      6 C          63.2144   87.5140   12.7101 C.ar    1  UNL1        0.0259
      7 C          62.4604   87.5787   11.4150 C.3     1  UNL1        0.1956
      8 O          62.0571   88.8291   10.6911 O.3     1  UNL1       -0.3752
      9 C          62.1804   86.1736   10.9709 C.3     1  UNL1        0.2958
     10 F          61.5116   86.8422    9.8065 F       1  UNL1       -0.2010
     11 F          61.7606   84.9082   10.2834 F       1  UNL1       -0.2010
     12 C          62.7614   85.2405   11.9915 C.3     1  UNL1        0.0986
     13 H          62.3598   89.6036   11.1905 H       1  UNL1        0.2110
     14 C          63.3835   91.4745   12.8984 C.3     1  UNL1        0.1816
     15 S          63.5696   90.0294   13.2546 S.O2    1  UNL1        0.0102
     16 O          65.0539   90.2362   13.3183 O.2     1  UNL1       -0.1686
     17 O          62.0852   89.8226   13.1910 O.2     1  UNL1       -0.1686
     18 O          64.3138   84.2488   14.6798 O.3     1  UNL1       -0.4537
     19 C          63.6536   83.1825   13.8571 C.ar    1  UNL1        0.1482
     20 C          64.2320   82.7944   12.5286 C.ar    1  UNL1        0.0671
     21 C          63.5717   81.7280   11.7058 C.ar    1  UNL1        0.1439
     22 F          64.1501   81.3399   10.3773 F       1  UNL1       -0.2040
     23 C          62.3331   81.0498   12.2115 C.ar    1  UNL1        0.0401
     24 C          61.7547   81.4379   13.5400 C.ar    1  UNL1        0.0737
     25 C          62.4149   82.5042   14.3627 C.ar    1  UNL1        0.0479
     26 C          60.5160   80.7596   14.0456 C.1     1  UNL1        0.1006
     27 N          59.2773   80.0814   14.5513 N.1     1  UNL1       -0.1908
@<TRIPOS>BOND
     1    14    15    1
     2    15    16    2
     3    15    17    2
     4    15     1    1
     5     1     2   ar
     6     2     3   ar
     7     3     4   ar
     8     4    18    1
     9    18    19    1
    10    19    20   ar
    11    20    21   ar
    12    21    22    1
    13    21    23   ar
    14    23    24   ar
    15    24    26    1
    16    26    27    3
    17    24    25   ar
    18     4     5   ar
    19     5     6   ar
    20     6     7    1
    21     7     8    1
    22     7     9    1
    23     9    10    1
    24     9    11    1
    25     9    12    1
    26     6     1   ar
    27    25    19   ar
    28    12     5    1
    29     8    13    1
