@<TRIPOS>MOLECULE
*****
 24 27 0 0 0
SMALL
GASTEIGER

@<TRIPOS>ATOM
      1 C          66.4221   92.4270   13.7693 C.2     1  UNL1        0.1219
      2 C          65.8187   91.2527   14.4812 C.2     1  UNL1        0.0285
      3 C          64.7114   90.4727   13.8364 C.2     1  UNL1       -0.0178
      4 C          64.1080   89.2984   14.5483 C.3     1  UNL1        0.0312
      5 C          64.2077   90.8671   12.4797 C.2     1  UNL1        0.0179
      6 C          63.1366   90.2925   11.6007 C.2     1  UNL1        0.0955
      7 C          63.0780   91.1117   10.3455 C.2     1  UNL1        0.1049
      8 N          64.1129   92.1926   10.4488 N.2     1  UNL1       -0.2475
      9 C          64.8111   92.0414   11.7678 C.2     1  UNL1        0.0665
     10 C          65.9183   92.8214   12.4125 C.3     1  UNL1        0.1095
     11 C          67.7508   93.1110   15.8945 C.3     1  UNL1        0.2520
     12 O          67.5293   93.2069   14.4140 O.2     1  UNL1       -0.4753
     13 C          62.2753   89.1068   11.9207 C.2     1  UNL1        0.3428
     14 O          60.8445   89.3063   12.3244 O.2     1  UNL1       -0.2448
     15 O          62.8448   87.7217   11.8371 O.3     1  UNL1       -0.4454
     16 C          61.9603   86.5681   11.4671 C.3     1  UNL1        0.2087
     17 C          61.7502   86.2169   10.0240 C.3     1  UNL1        0.0445
     18 C          60.4776   86.6097    9.3341 C.3     1  UNL1        0.0210
     19 C          60.2675   86.2585    7.8910 C.3     1  UNL1        0.0722
     20 N          61.3301   85.5144    7.1379 N.3     1  UNL1       -0.2727
     21 C          62.6028   85.1216    7.8278 C.3     1  UNL1        0.0722
     22 C          62.8128   85.4728    9.2709 C.3     1  UNL1        0.0210
     23 C          61.4905   85.6848    7.9272 C.3     1  UNL1        0.0722
     24 C          61.6805   86.0023    9.2321 C.3     1  UNL1        0.0210
@<TRIPOS>BOND
     1    11    12    1
     2    12     1    1
     3     1     2    2
     4     2     3    1
     5     3     4    1
     6     3     5    2
     7     5     6    1
     8     6    13    1
     9    13    14    2
    10    13    15    1
    11    15    16    1
    12    16    17    1
    13    17    18    1
    14    18    19    1
    15    19    20    1
    16    20    21    1
    17    21    22    1
    18    20    23    1
    19    23    24    1
    20     6     7    2
    21     7     8    1
    22     8     9    2
    23     9    10    1
    24    10     1    1
    25     9     5    1
    26    22    17    1
    27    24    17    1
@<TRIPOS>MOLECULE
*****
 24 27 0 0 0
SMALL
GASTEIGER

@<TRIPOS>ATOM
      1 C          65.9939   93.3228   11.8393 C.2     1  UNL1        0.1219
      2 C          65.0414   92.8675   10.7738 C.2     1  UNL1        0.0285
      3 C          64.1374   91.6973   11.0261 C.2     1  UNL1       -0.0178
      4 C          63.1849   91.2420    9.9606 C.3     1  UNL1        0.0312
      5 C          64.1860   90.9826   12.3440 C.2     1  UNL1        0.0179
      6 C          63.4220   89.8069   12.8769 C.2     1  UNL1        0.0955
      7 C          63.9023   89.5356   14.2718 C.2     1  UNL1        0.1049
      8 N          64.9631   90.5436   14.6009 N.2     1  UNL1       -0.2475
      9 C          65.1385   91.4379   13.4095 C.2     1  UNL1        0.0665
     10 C          66.0425   92.6080   13.1572 C.3     1  UNL1        0.1095
     11 C          66.4102   95.6560   10.7751 C.3     1  UNL1        0.2520
     12 O          66.8979   94.4929   11.5871 O.2     1  UNL1       -0.4753
     13 C          62.3635   89.0375   12.1436 C.2     1  UNL1        0.3428
     14 O          60.9292   89.4686   12.2274 O.2     1  UNL1       -0.2448
     15 O          62.7392   87.8371   11.3265 O.3     1  UNL1       -0.4454
     16 C          61.7547   86.7215   11.1356 C.3     1  UNL1        0.2087
     17 C          61.0855   86.5310    9.8068 C.3     1  UNL1        0.0445
     18 C          59.7558   87.1711    9.5380 C.3     1  UNL1        0.0210
     19 C          59.0867   86.9805    8.2092 C.3     1  UNL1        0.0722
     20 N          59.7472   86.1499    7.1491 N.3     1  UNL1       -0.2727
     21 C          61.0769   85.5099    7.4179 C.3     1  UNL1        0.0722
     22 C          61.7460   85.7004    8.7467 C.3     1  UNL1        0.0210
     23 C          60.1524   86.2258    7.8618 C.3     1  UNL1        0.0722
     24 C          60.7575   86.3980    9.0633 C.3     1  UNL1        0.0210
@<TRIPOS>BOND
     1    11    12    1
     2    12     1    1
     3     1     2    2
     4     2     3    1
     5     3     4    1
     6     3     5    2
     7     5     6    1
     8     6    13    1
     9    13    14    2
    10    13    15    1
    11    15    16    1
    12    16    17    1
    13    17    18    1
    14    18    19    1
    15    19    20    1
    16    20    21    1
    17    21    22    1
    18    20    23    1
    19    23    24    1
    20     6     7    2
    21     7     8    1
    22     8     9    2
    23     9    10    1
    24    10     1    1
    25     9     5    1
    26    22    17    1
    27    24    17    1
@<TRIPOS>MOLECULE
*****
 24 27 0 0 0
SMALL
GASTEIGER

@<TRIPOS>ATOM
      1 C          65.9581   93.2163   11.8925 C.2     1  UNL1        0.1219
      2 C          64.9912   92.8200   10.8163 C.2     1  UNL1        0.0285
      3 C          64.0627   91.6618   11.0317 C.2     1  UNL1       -0.0178
      4 C          63.0958   91.2655    9.9555 C.3     1  UNL1        0.0312
      5 C          64.1010   90.8999   12.3232 C.2     1  UNL1        0.0179
      6 C          63.3134   89.7231   12.8181 C.2     1  UNL1        0.0955
      7 C          63.7934   89.3921   14.2001 C.2     1  UNL1        0.1049
      8 N          64.8777   90.3644   14.5594 N.2     1  UNL1       -0.2475
      9 C          65.0678   91.2962   13.3994 C.2     1  UNL1        0.0665
     10 C          65.9963   92.4544   13.1841 C.3     1  UNL1        0.1095
     11 C          66.4279   95.5676   10.8924 C.3     1  UNL1        0.2520
     12 O          66.8866   94.3745   11.6772 O.2     1  UNL1       -0.4753
     13 C          62.2350   89.0037   12.0634 C.2     1  UNL1        0.3428
     14 O          60.8017   89.4128   12.2308 O.2     1  UNL1       -0.2448
     15 O          62.5901   87.8751   11.1413 O.3     1  UNL1       -0.4454
     16 C          61.8261   86.5858   11.2050 C.3     1  UNL1        0.2087
     17 C          62.5618   85.2819   11.2982 C.3     1  UNL1        0.0445
     18 C          63.1216   84.6464   10.0602 C.3     1  UNL1        0.0210
     19 C          63.8573   83.3426   10.1535 C.3     1  UNL1        0.0722
     20 N          64.0331   82.6742   11.4848 N.3     1  UNL1       -0.2727
     21 C          63.4732   83.3097   12.7228 C.3     1  UNL1        0.0722
     22 C          62.7376   84.6135   12.6295 C.3     1  UNL1        0.0210
     23 C          63.6226   83.3879   11.4835 C.3     1  UNL1        0.0722
     24 C          62.9574   84.5669   11.3992 C.3     1  UNL1        0.0210
@<TRIPOS>BOND
     1    11    12    1
     2    12     1    1
     3     1     2    2
     4     2     3    1
     5     3     4    1
     6     3     5    2
     7     5     6    1
     8     6    13    1
     9    13    14    2
    10    13    15    1
    11    15    16    1
    12    16    17    1
    13    17    18    1
    14    18    19    1
    15    19    20    1
    16    20    21    1
    17    21    22    1
    18    20    23    1
    19    23    24    1
    20     6     7    2
    21     7     8    1
    22     8     9    2
    23     9    10    1
    24    10     1    1
    25     9     5    1
    26    22    17    1
    27    24    17    1
@<TRIPOS>MOLECULE
*****
 24 27 0 0 0
SMALL
GASTEIGER

@<TRIPOS>ATOM
      1 C          66.1530   92.2448   14.0409 C.2     1  UNL1        0.1219
      2 C          65.5248   90.9966   14.5861 C.2     1  UNL1        0.0285
      3 C          64.4934   90.2628   13.7812 C.2     1  UNL1       -0.0178
      4 C          63.8652   89.0146   14.3264 C.3     1  UNL1        0.0312
      5 C          64.0903   90.7772   12.4311 C.2     1  UNL1        0.0179
      6 C          63.1085   90.2711   11.4163 C.2     1  UNL1        0.0955
      7 C          63.1299   91.2065   10.2438 C.2     1  UNL1        0.1049
      8 N          64.1250   92.2907   10.5341 N.2     1  UNL1       -0.2475
      9 C          64.7185   92.0255   11.8859 C.2     1  UNL1        0.0665
     10 C          65.7499   92.7593   12.6907 C.3     1  UNL1        0.1095
     11 C          68.1474   92.2150   15.7056 C.3     1  UNL1        0.2520
     12 O          67.1844   92.9786   14.8457 O.2     1  UNL1       -0.4753
     13 C          62.2551   89.0448   11.5504 C.2     1  UNL1        0.3428
     14 O          60.9384   89.1218   12.2647 O.2     1  UNL1       -0.2448
     15 O          62.7184   87.7415   10.9701 O.3     1  UNL1       -0.4454
     16 C          61.9029   86.4987   11.1712 C.3     1  UNL1        0.2087
     17 C          62.5795   85.1625   11.2520 C.3     1  UNL1        0.0445
     18 C          63.1614   84.5406   10.0173 C.3     1  UNL1        0.0210
     19 C          63.8381   83.2043   10.0981 C.3     1  UNL1        0.0722
     20 N          63.9329   82.4900   11.4137 N.3     1  UNL1       -0.2727
     21 C          63.3511   83.1120   12.6485 C.3     1  UNL1        0.0722
     22 C          62.6744   84.4482   12.5676 C.3     1  UNL1        0.0210
     23 C          63.5527   83.2203   11.4189 C.3     1  UNL1        0.0722
     24 C          62.9408   84.4286   11.3459 C.3     1  UNL1        0.0210
@<TRIPOS>BOND
     1    11    12    1
     2    12     1    1
     3     1     2    2
     4     2     3    1
     5     3     4    1
     6     3     5    2
     7     5     6    1
     8     6    13    1
     9    13    14    2
    10    13    15    1
    11    15    16    1
    12    16    17    1
    13    17    18    1
    14    18    19    1
    15    19    20    1
    16    20    21    1
    17    21    22    1
    18    20    23    1
    19    23    24    1
    20     6     7    2
    21     7     8    1
    22     8     9    2
    23     9    10    1
    24    10     1    1
    25     9     5    1
    26    22    17    1
    27    24    17    1
@<TRIPOS>MOLECULE
*****
 24 27 0 0 0
SMALL
GASTEIGER

@<TRIPOS>ATOM
      1 C          66.3721   93.1805   11.5704 C.2     1  UNL1        0.1219
      2 C          66.6410   92.9746   13.0317 C.2     1  UNL1        0.0285
      3 C          65.7637   92.0599   13.8341 C.2     1  UNL1       -0.0178
      4 C          66.0326   91.8540   15.2953 C.3     1  UNL1        0.0312
      5 C          64.6177   91.3512   13.1752 C.2     1  UNL1        0.0179
      6 C          63.5897   90.3961   13.7055 C.2     1  UNL1        0.0955
      7 C          62.6856   90.0118   12.5721 C.2     1  UNL1        0.1049
      8 N          63.1547   90.7293   11.3412 N.2     1  UNL1       -0.2475
      9 C          64.3488   91.5571   11.7139 C.2     1  UNL1        0.0665
     10 C          65.2260   92.4717   10.9115 C.3     1  UNL1        0.1095
     11 C          66.8443   94.4965    9.3806 C.3     1  UNL1        0.2520
     12 O          67.2493   94.0952   10.7680 O.2     1  UNL1       -0.4753
     13 C          63.4845   89.9106   15.1209 C.2     1  UNL1        0.3428
     14 O          63.3250   90.8949   16.2415 O.2     1  UNL1       -0.2448
     15 O          63.5388   88.4409   15.4157 O.3     1  UNL1       -0.4454
     16 C          64.5069   87.5633   14.6789 C.3     1  UNL1        0.2087
     17 C          64.1409   86.1437   14.3620 C.3     1  UNL1        0.0445
     18 C          63.4118   85.8229   13.0910 C.3     1  UNL1        0.0210
     19 C          63.0458   84.4031   12.7742 C.3     1  UNL1        0.0722
     20 N          63.4089   83.3042   13.7284 N.3     1  UNL1       -0.2727
     21 C          64.1380   83.6250   14.9994 C.3     1  UNL1        0.0722
     22 C          64.5040   85.0447   15.3162 C.3     1  UNL1        0.0210
     23 C          63.6306   84.0669   13.9451 C.3     1  UNL1        0.0722
     24 C          63.9616   85.3506   14.2317 C.3     1  UNL1        0.0210
@<TRIPOS>BOND
     1    11    12    1
     2    12     1    1
     3     1     2    2
     4     2     3    1
     5     3     4    1
     6     3     5    2
     7     5     6    1
     8     6    13    1
     9    13    14    2
    10    13    15    1
    11    15    16    1
    12    16    17    1
    13    17    18    1
    14    18    19    1
    15    19    20    1
    16    20    21    1
    17    21    22    1
    18    20    23    1
    19    23    24    1
    20     6     7    2
    21     7     8    1
    22     8     9    2
    23     9    10    1
    24    10     1    1
    25     9     5    1
    26    22    17    1
    27    24    17    1
@<TRIPOS>MOLECULE
*****
 24 27 0 0 0
SMALL
GASTEIGER

@<TRIPOS>ATOM
      1 C          61.3309   86.9817    9.8173 C.2     1  UNL1        0.1219
      2 C          61.3832   88.4681    9.6226 C.2     1  UNL1        0.0285
      3 C          62.1183   89.3282   10.6075 C.2     1  UNL1       -0.0178
      4 C          62.1706   90.8145   10.4127 C.3     1  UNL1        0.0312
      5 C          62.8011   88.7019   11.7871 C.2     1  UNL1        0.0179
      6 C          63.5957   89.2895   12.9155 C.2     1  UNL1        0.0955
      7 C          64.0346   88.1664   13.8076 C.2     1  UNL1        0.1049
      8 N          63.5111   86.8845   13.2306 N.2     1  UNL1       -0.2475
      9 C          62.7488   87.2155   11.9819 C.2     1  UNL1        0.0665
     10 C          62.0137   86.3554   10.9970 C.3     1  UNL1        0.1095
     11 C          59.4273   86.6793    8.0754 C.3     1  UNL1        0.2520
     12 O          60.5959   86.1216    8.8325 O.2     1  UNL1       -0.4753
     13 C          63.8984   90.7449   13.1164 C.2     1  UNL1        0.3428
     14 O          63.5715   91.4055   14.4228 O.2     1  UNL1       -0.2448
     15 O          64.5279   91.5396   12.0109 O.3     1  UNL1       -0.4454
     16 C          65.7994   92.2953   12.2605 C.3     1  UNL1        0.2087
     17 C          66.4954   92.9876   11.1263 C.3     1  UNL1        0.0445
     18 C          67.5135   92.2495   10.3086 C.3     1  UNL1        0.0210
     19 C          68.2094   92.9419    9.1744 C.3     1  UNL1        0.0722
     20 N          67.8872   94.3723    8.8580 N.3     1  UNL1       -0.2727
     21 C          66.8691   95.1103    9.6757 C.3     1  UNL1        0.0722
     22 C          66.1732   94.4180   10.8099 C.3     1  UNL1        0.0210
     23 C          67.4799   94.0350    9.4891 C.3     1  UNL1        0.0722
     24 C          66.8506   93.4091   10.5146 C.3     1  UNL1        0.0210
@<TRIPOS>BOND
     1    11    12    1
     2    12     1    1
     3     1     2    2
     4     2     3    1
     5     3     4    1
     6     3     5    2
     7     5     6    1
     8     6    13    1
     9    13    14    2
    10    13    15    1
    11    15    16    1
    12    16    17    1
    13    17    18    1
    14    18    19    1
    15    19    20    1
    16    20    21    1
    17    21    22    1
    18    20    23    1
    19    23    24    1
    20     6     7    2
    21     7     8    1
    22     8     9    2
    23     9    10    1
    24    10     1    1
    25     9     5    1
    26    22    17    1
    27    24    17    1
@<TRIPOS>MOLECULE
*****
 24 27 0 0 0
SMALL
GASTEIGER

@<TRIPOS>ATOM
      1 C          66.3508   93.8416   11.2578 C.2     1  UNL1        0.1219
      2 C          66.4884   93.2043   12.6087 C.2     1  UNL1        0.0285
      3 C          65.5784   92.0789   13.0032 C.2     1  UNL1       -0.0178
      4 C          65.7159   91.4416   14.3541 C.3     1  UNL1        0.0312
      5 C          64.5308   91.5910   12.0469 C.2     1  UNL1        0.0179
      6 C          63.4985   90.5082   12.1558 C.2     1  UNL1        0.0955
      7 C          62.7229   90.4764   10.8723 C.2     1  UNL1        0.1049
      8 N          63.2759   91.5395    9.9701 N.2     1  UNL1       -0.2475
      9 C          64.3932   92.2284   10.6960 C.2     1  UNL1        0.0665
     10 C          65.3032   93.3536   10.3015 C.3     1  UNL1        0.1095
     11 C          67.2908   95.4437    9.4414 C.3     1  UNL1        0.2520
     12 O          67.2607   94.9669   10.8632 O.2     1  UNL1       -0.4753
     13 C          63.2801   89.6143   13.3404 C.2     1  UNL1        0.3428
     14 O          62.4400   90.0849   14.4905 O.2     1  UNL1       -0.2448
     15 O          63.9018   88.2496   13.3748 O.3     1  UNL1       -0.4454
     16 C          64.5924   87.7711   14.6175 C.3     1  UNL1        0.2087
     17 C          63.8049   87.0937   15.6996 C.3     1  UNL1        0.0445
     18 C          63.5294   85.6215   15.6173 C.3     1  UNL1        0.0210
     19 C          62.7419   84.9442   16.6995 C.3     1  UNL1        0.0722
     20 N          62.2298   85.7391   17.8639 N.3     1  UNL1       -0.2727
     21 C          62.5052   87.2113   17.9462 C.3     1  UNL1        0.0722
     22 C          63.2927   87.8886   16.8640 C.3     1  UNL1        0.0210
     23 C          62.6567   86.1542   17.2952 C.3     1  UNL1        0.0722
     24 C          63.3687   86.7667   16.3168 C.3     1  UNL1        0.0210
@<TRIPOS>BOND
     1    11    12    1
     2    12     1    1
     3     1     2    2
     4     2     3    1
     5     3     4    1
     6     3     5    2
     7     5     6    1
     8     6    13    1
     9    13    14    2
    10    13    15    1
    11    15    16    1
    12    16    17    1
    13    17    18    1
    14    18    19    1
    15    19    20    1
    16    20    21    1
    17    21    22    1
    18    20    23    1
    19    23    24    1
    20     6     7    2
    21     7     8    1
    22     8     9    2
    23     9    10    1
    24    10     1    1
    25     9     5    1
    26    22    17    1
    27    24    17    1
@<TRIPOS>MOLECULE
*****
 24 27 0 0 0
SMALL
GASTEIGER

@<TRIPOS>ATOM
      1 C          62.4933   86.0023   11.6455 C.2     1  UNL1        0.1219
      2 C          63.2724   86.3314   12.8843 C.2     1  UNL1        0.0285
      3 C          63.6258   87.7565   13.1915 C.2     1  UNL1       -0.0178
      4 C          64.4050   88.0857   14.4302 C.3     1  UNL1        0.0312
      5 C          63.2001   88.8524   12.2599 C.2     1  UNL1        0.0179
      6 C          63.4012   90.3383   12.2998 C.2     1  UNL1        0.0955
      7 C          62.7463   90.9275   11.0857 C.2     1  UNL1        0.1049
      8 N          62.1406   89.8057   10.2954 N.2     1  UNL1       -0.2475
      9 C          62.4210   88.5232   11.0211 C.2     1  UNL1        0.0665
     10 C          62.0676   87.0982   10.7139 C.3     1  UNL1        0.1095
     11 C          63.1652   83.4962   11.5114 C.3     1  UNL1        0.2520
     12 O          62.1399   84.5773   11.3383 O.2     1  UNL1       -0.4753
     13 C          64.1293   91.1011   13.3665 C.2     1  UNL1        0.3428
     14 O          63.4618   91.3735   14.6819 O.2     1  UNL1       -0.2448
     15 O          65.5249   91.5915   13.1179 O.3     1  UNL1       -0.4454
     16 C          65.7485   92.9632   12.5534 C.3     1  UNL1        0.2087
     17 C          66.5287   93.1336   11.2837 C.3     1  UNL1        0.0445
     18 C          66.2702   94.3159   10.3975 C.3     1  UNL1        0.0210
     19 C          67.0505   94.4863    9.1278 C.3     1  UNL1        0.0722
     20 N          68.0893   93.4744    8.7443 N.3     1  UNL1       -0.2727
     21 C          68.3478   92.2921    9.6306 C.3     1  UNL1        0.0722
     22 C          67.5675   92.1217   10.9003 C.3     1  UNL1        0.0210
     23 C          67.6869   93.3385    9.4497 C.3     1  UNL1        0.0722
     24 C          66.9815   93.1843   10.5978 C.3     1  UNL1        0.0210
@<TRIPOS>BOND
     1    11    12    1
     2    12     1    1
     3     1     2    2
     4     2     3    1
     5     3     4    1
     6     3     5    2
     7     5     6    1
     8     6    13    1
     9    13    14    2
    10    13    15    1
    11    15    16    1
    12    16    17    1
    13    17    18    1
    14    18    19    1
    15    19    20    1
    16    20    21    1
    17    21    22    1
    18    20    23    1
    19    23    24    1
    20     6     7    2
    21     7     8    1
    22     8     9    2
    23     9    10    1
    24    10     1    1
    25     9     5    1
    26    22    17    1
    27    24    17    1
@<TRIPOS>MOLECULE
*****
 24 27 0 0 0
SMALL
GASTEIGER

@<TRIPOS>ATOM
      1 C          61.7900   88.8511   10.1797 C.2     1  UNL1        0.1219
      2 C          61.7862   87.3704   10.4192 C.2     1  UNL1        0.0285
      3 C          62.4722   86.8042   11.6271 C.2     1  UNL1       -0.0178
      4 C          62.4684   85.3235   11.8666 C.3     1  UNL1        0.0312
      5 C          63.1621   87.7188   12.5954 C.2     1  UNL1        0.0179
      6 C          63.9164   87.4526   13.8643 C.2     1  UNL1        0.0955
      7 C          64.3865   88.7687   14.4090 C.2     1  UNL1        0.1049
      8 N          63.9226   89.8484   13.4767 N.2     1  UNL1       -0.2475
      9 C          63.1659   89.1996   12.3559 C.2     1  UNL1        0.0665
     10 C          62.4799   89.7657   11.1481 C.3     1  UNL1        0.1095
     11 C          59.9394   88.6942    8.3631 C.3     1  UNL1        0.2520
     12 O          61.1040   89.4173    8.9720 O.2     1  UNL1       -0.4753
     13 C          64.1582   86.1064   14.4803 C.2     1  UNL1        0.3428
     14 O          65.5514   85.5557   14.5562 O.2     1  UNL1       -0.2448
     15 O          63.0069   85.3110   15.0203 O.3     1  UNL1       -0.4454
     16 C          63.2128   83.8874   15.4458 C.3     1  UNL1        0.2087
     17 C          63.0522   82.7765   14.4508 C.3     1  UNL1        0.0445
     18 C          64.1103   82.5392   13.4144 C.3     1  UNL1        0.0210
     19 C          63.9497   81.4283   12.4194 C.3     1  UNL1        0.0722
     20 N          62.7310   80.5547   12.4608 N.3     1  UNL1       -0.2727
     21 C          61.6730   80.7920   13.4973 C.3     1  UNL1        0.0722
     22 C          61.8336   81.9029   14.4923 C.3     1  UNL1        0.0210
     23 C          62.7749   81.1510   13.0269 C.3     1  UNL1        0.0722
     24 C          62.9200   82.1555   13.9266 C.3     1  UNL1        0.0210
@<TRIPOS>BOND
     1    11    12    1
     2    12     1    1
     3     1     2    2
     4     2     3    1
     5     3     4    1
     6     3     5    2
     7     5     6    1
     8     6    13    1
     9    13    14    2
    10    13    15    1
    11    15    16    1
    12    16    17    1
    13    17    18    1
    14    18    19    1
    15    19    20    1
    16    20    21    1
    17    21    22    1
    18    20    23    1
    19    23    24    1
    20     6     7    2
    21     7     8    1
    22     8     9    2
    23     9    10    1
    24    10     1    1
    25     9     5    1
    26    22    17    1
    27    24    17    1
