@<TRIPOS>MOLECULE
*****
 46 51 0 0 0
SMALL
GASTEIGER

@<TRIPOS>ATOM
      1 O          62.4172   90.2570   12.9352 O.2     1  UNL1       -0.2733
      2 C          62.8158   89.7616   11.5767 C.2     1  UNL1        0.2410
      3 N          63.6452   90.6281   10.6760 N.am    1  UNL1       -0.2966
      4 H          63.9068   90.3030    9.7843 H       1  UNL1        0.1499
      5 C          64.0760   91.9900   11.1339 C.3     1  UNL1        0.1543
      6 C          65.0744   92.1267   12.2449 C.ar    1  UNL1        0.1417
      7 N          64.7873   91.9869   13.7105 N.ar    1  UNL1       -0.2276
      8 C          66.0707   92.2010   14.4568 C.ar    1  UNL1        0.1167
      9 C          66.3952   92.1834   15.9212 C.ar    1  UNL1        0.0238
     10 C          67.8001   92.4378   16.3811 C.ar    1  UNL1        0.0223
     11 C          68.8804   92.7098   15.3768 C.ar    1  UNL1        0.1006
     12 N          68.5560   92.7275   13.9124 N.ar    1  UNL1       -0.2252
     13 C          67.1511   92.4731   13.4524 C.ar    1  UNL1        0.1626
     14 N          66.5354   92.4271   12.0854 N.ar    1  UNL1       -0.2990
     15 C          67.2543   92.6436   10.7869 C.3     1  UNL1        0.0898
     16 C          68.1230   92.3725    9.5944 C.3     1  UNL1        0.0273
     17 C          67.9350   91.3148   10.6412 C.3     1  UNL1        0.0273
     18 C          66.8235   94.0476   10.4815 C.ar    1  UNL1       -0.0037
     19 C          66.9495   94.5840    9.0864 C.ar    1  UNL1       -0.0025
     20 C          66.5186   95.9880    8.7809 C.ar    1  UNL1       -0.0003
     21 C          65.9617   96.8554    9.8707 C.ar    1  UNL1       -0.0000
     22 C          65.8357   96.3189   11.2658 C.ar    1  UNL1       -0.0003
     23 C          66.2666   94.9150   11.5712 C.ar    1  UNL1       -0.0025
     24 C          62.3850   88.3997   11.1188 C.3     1  UNL1        0.1529
     25 N          61.8486   88.2100    9.7309 N.am    1  UNL1       -0.2979
     26 C          60.3926   88.4388    9.4517 C.2     1  UNL1        0.2299
     27 O          59.4731   88.8573   10.5604 O.2     1  UNL1       -0.2748
     28 H          62.4521   87.9353    9.0032 H       1  UNL1        0.1498
     29 C          59.8562   88.2491    8.0638 C.3     1  UNL1        0.1557
     30 C          59.3211   88.5796    6.7021 C.3     1  UNL1        0.0177
     31 C          59.6733   89.6813    7.6572 C.3     1  UNL1        0.0177
     32 C          59.8528   86.7510    7.9883 C.3     1  UNL1        0.4048
     33 F          59.8496   85.2528    7.9128 F       1  UNL1       -0.1695
     34 F          58.4710   86.7246    8.5711 F       1  UNL1       -0.1695
     35 F          61.2347   86.7772    7.4055 F       1  UNL1       -0.1695
     36 C          62.4906   87.2275   12.0487 C.3     1  UNL1        0.0552
     37 C          62.8990   85.8846   11.5196 C.ar    1  UNL1       -0.0161
     38 C          62.8380   85.6089   10.0464 C.ar    1  UNL1       -0.0042
     39 C          63.2463   84.2661    9.5172 C.ar    1  UNL1       -0.0003
     40 C          63.7157   83.1991   10.4612 C.ar    1  UNL1       -0.0001
     41 C          63.7767   83.4749   11.9343 C.ar    1  UNL1        0.0035
     42 C          63.3684   84.8176   12.4635 C.ar    1  UNL1        0.0675
     43 C          63.4294   85.0934   13.9367 C.3     1  UNL1        0.4183
     44 F          63.4904   85.3692   15.4099 F       1  UNL1       -0.1659
     45 F          64.7837   85.7148   13.7643 F       1  UNL1       -0.1659
     46 F          62.0751   84.4720   14.1091 F       1  UNL1       -0.1659
@<TRIPOS>BOND
     1     1     2    2
     2     2     3   am
     3     3     5    1
     4     5     6    1
     5     6     7   ar
     6     7     8   ar
     7     8     9   ar
     8     9    10   ar
     9    10    11   ar
    10    11    12   ar
    11    12    13   ar
    12    13    14   ar
    13    14    15    1
    14    15    18    1
    15    18    19   ar
    16    19    20   ar
    17    20    21   ar
    18    21    22   ar
    19    22    23   ar
    20    15    16    1
    21    16    17    1
    22     2    24    1
    23    24    36    1
    24    36    37    1
    25    37    38   ar
    26    38    39   ar
    27    39    40   ar
    28    40    41   ar
    29    41    42   ar
    30    42    43    1
    31    43    44    1
    32    43    45    1
    33    43    46    1
    34    24    25    1
    35    25    26   am
    36    26    27    2
    37    26    29    1
    38    29    32    1
    39    32    33    1
    40    32    34    1
    41    32    35    1
    42    29    30    1
    43    30    31    1
    44    14     6   ar
    45    17    15    1
    46    42    37   ar
    47    31    29    1
    48    13     8   ar
    49    23    18   ar
    50     3     4    1
    51    25    28    1
@<TRIPOS>MOLECULE
*****
 46 51 0 0 0
SMALL
GASTEIGER

@<TRIPOS>ATOM
      1 O          61.9971   90.4545   12.6624 O.2     1  UNL1       -0.2733
      2 C          62.5228   89.7650   11.4385 C.2     1  UNL1        0.2410
      3 N          63.5348   90.4496   10.5683 N.am    1  UNL1       -0.2966
      4 H          63.8798   89.9971    9.7649 H       1  UNL1        0.1499
      5 C          64.0210   91.8238   10.9220 C.3     1  UNL1        0.1543
      6 C          64.9604   92.0130   12.0761 C.ar    1  UNL1        0.1417
      7 N          64.6132   91.8692   13.5282 N.ar    1  UNL1       -0.2276
      8 C          65.8501   92.1465   14.3302 C.ar    1  UNL1        0.1167
      9 C          66.1078   92.1527   15.8079 C.ar    1  UNL1        0.0238
     10 C          67.4771   92.4743   16.3290 C.ar    1  UNL1        0.0223
     11 C          68.5887   92.7896   15.3725 C.ar    1  UNL1        0.1006
     12 N          68.3310   92.7834   13.8949 N.ar    1  UNL1       -0.2252
     13 C          66.9617   92.4619   13.3737 C.ar    1  UNL1        0.1626
     14 N          66.4118   92.3793   11.9806 N.ar    1  UNL1       -0.2990
     15 C          67.1787   92.6208   10.7143 C.3     1  UNL1        0.0898
     16 C          68.0900   92.3719    9.5491 C.3     1  UNL1        0.0273
     17 C          67.8606   91.2929   10.5655 C.3     1  UNL1        0.0273
     18 C          66.7633   94.0324   10.4233 C.ar    1  UNL1       -0.0037
     19 C          66.2018   94.8898   11.5184 C.ar    1  UNL1       -0.0025
     20 C          65.7863   96.3015   11.2274 C.ar    1  UNL1       -0.0003
     21 C          65.9325   96.8556    9.8412 C.ar    1  UNL1       -0.0000
     22 C          66.4941   95.9982    8.7460 C.ar    1  UNL1       -0.0003
     23 C          66.9095   94.5865    9.0370 C.ar    1  UNL1       -0.0025
     24 C          62.0366   88.3908   11.0846 C.3     1  UNL1        0.1529
     25 N          62.3807   87.2243   11.9627 N.am    1  UNL1       -0.2979
     26 C          63.4596   87.3563   12.9965 C.2     1  UNL1        0.2299
     27 O          64.1944   88.6547   13.1522 O.2     1  UNL1       -0.2748
     28 H          61.8984   86.3721   11.8606 H       1  UNL1        0.1498
     29 C          63.8037   86.1899   13.8746 C.3     1  UNL1        0.1557
     30 C          64.3913   85.4053   15.0100 C.3     1  UNL1        0.0177
     31 C          64.6245   86.8844   14.9205 C.3     1  UNL1        0.0177
     32 C          63.1024   85.0902   13.1337 C.3     1  UNL1        0.4048
     33 F          62.4010   83.9906   12.3928 F       1  UNL1       -0.1695
     34 F          64.1646   85.1259   12.0752 F       1  UNL1       -0.1695
     35 F          62.0401   85.0545   14.1921 F       1  UNL1       -0.1695
     36 C          61.2064   88.1830    9.8528 C.3     1  UNL1        0.0552
     37 C          61.4952   87.0286    8.9395 C.ar    1  UNL1       -0.0161
     38 C          62.7305   86.2023    9.1428 C.ar    1  UNL1       -0.0042
     39 C          63.0194   85.0480    8.2296 C.ar    1  UNL1       -0.0003
     40 C          62.0730   84.7199    7.1131 C.ar    1  UNL1       -0.0001
     41 C          60.8377   85.5462    6.9098 C.ar    1  UNL1        0.0035
     42 C          60.5488   86.7006    7.8230 C.ar    1  UNL1        0.0675
     43 C          59.3136   87.5269    7.6197 C.3     1  UNL1        0.4183
     44 F          58.0783   88.3532    7.4163 F       1  UNL1       -0.1659
     45 F          60.1478   88.6320    7.0427 F       1  UNL1       -0.1659
     46 F          58.4794   86.4218    8.1966 F       1  UNL1       -0.1659
@<TRIPOS>BOND
     1     1     2    2
     2     2     3   am
     3     3     5    1
     4     5     6    1
     5     6     7   ar
     6     7     8   ar
     7     8     9   ar
     8     9    10   ar
     9    10    11   ar
    10    11    12   ar
    11    12    13   ar
    12    13    14   ar
    13    14    15    1
    14    15    18    1
    15    18    19   ar
    16    19    20   ar
    17    20    21   ar
    18    21    22   ar
    19    22    23   ar
    20    15    16    1
    21    16    17    1
    22     2    24    1
    23    24    36    1
    24    36    37    1
    25    37    38   ar
    26    38    39   ar
    27    39    40   ar
    28    40    41   ar
    29    41    42   ar
    30    42    43    1
    31    43    44    1
    32    43    45    1
    33    43    46    1
    34    24    25    1
    35    25    26   am
    36    26    27    2
    37    26    29    1
    38    29    32    1
    39    32    33    1
    40    32    34    1
    41    32    35    1
    42    29    30    1
    43    30    31    1
    44    14     6   ar
    45    17    15    1
    46    42    37   ar
    47    31    29    1
    48    13     8   ar
    49    23    18   ar
    50     3     4    1
    51    25    28    1
@<TRIPOS>MOLECULE
*****
 46 51 0 0 0
SMALL
GASTEIGER

@<TRIPOS>ATOM
      1 O          63.9420   86.7578   14.2795 O.2     1  UNL1       -0.2733
      2 C          63.3396   87.1364   12.9590 C.2     1  UNL1        0.2410
      3 N          63.2857   88.5771   12.5447 N.am    1  UNL1       -0.2966
      4 H          62.8904   88.8256   11.6780 H       1  UNL1        0.1499
      5 C          63.8343   89.6391   13.4509 C.3     1  UNL1        0.1543
      6 C          64.3922   90.9050   12.8711 C.ar    1  UNL1        0.1417
      7 N          64.3541   91.3045   11.4258 N.ar    1  UNL1       -0.2276
      8 C          65.0245   92.6401   11.2962 C.ar    1  UNL1        0.1167
      9 C          65.2814   93.5234   10.1115 C.ar    1  UNL1        0.0238
     10 C          65.9909   94.8326   10.2920 C.ar    1  UNL1        0.0223
     11 C          66.4434   95.2585   11.6572 C.ar    1  UNL1        0.1006
     12 N          66.1865   94.3752   12.8420 N.ar    1  UNL1       -0.2252
     13 C          65.4771   93.0660   12.6615 C.ar    1  UNL1        0.1626
     14 N          65.0863   91.9936   13.6348 N.ar    1  UNL1       -0.2990
     15 C          65.3443   92.0074   15.1124 C.3     1  UNL1        0.0898
     16 C          65.0921   91.9157   16.5881 C.3     1  UNL1        0.0273
     17 C          63.9650   91.7082   15.6205 C.3     1  UNL1        0.0273
     18 C          66.8131   92.3115   15.1175 C.ar    1  UNL1       -0.0037
     19 C          67.3611   93.3482   16.0528 C.ar    1  UNL1       -0.0025
     20 C          68.8300   93.6523   16.0580 C.ar    1  UNL1       -0.0003
     21 C          69.7508   92.9195   15.1278 C.ar    1  UNL1       -0.0000
     22 C          69.2027   91.8828   14.1924 C.ar    1  UNL1       -0.0003
     23 C          67.7339   91.5788   14.1873 C.ar    1  UNL1       -0.0025
     24 C          62.7910   86.0744   12.0527 C.3     1  UNL1        0.1529
     25 N          61.5244   86.3218   11.2882 N.am    1  UNL1       -0.2979
     26 C          61.5413   87.2018   10.0735 C.2     1  UNL1        0.2299
     27 O          62.8247   87.8345    9.6235 O.2     1  UNL1       -0.2748
     28 H          60.6820   85.9066   11.5836 H       1  UNL1        0.1498
     29 C          60.2747   87.4492    9.3090 C.3     1  UNL1        0.1557
     30 C          59.1252   87.2188    8.3733 C.3     1  UNL1        0.0177
     31 C          60.1719   86.1591    8.5507 C.3     1  UNL1        0.0177
     32 C          59.9375   88.8253    9.8017 C.3     1  UNL1        0.4048
     33 F          59.6004   90.2014   10.2944 F       1  UNL1       -0.1695
     34 F          59.4612   88.2438   11.0998 F       1  UNL1       -0.1695
     35 F          60.4138   89.4068    8.5037 F       1  UNL1       -0.1695
     36 C          63.5090   84.7651   11.9111 C.3     1  UNL1        0.0552
     37 C          63.0152   83.5553   12.6478 C.ar    1  UNL1       -0.0161
     38 C          62.2874   83.7152   13.9496 C.ar    1  UNL1       -0.0042
     39 C          61.7936   82.5056   14.6863 C.ar    1  UNL1       -0.0003
     40 C          62.0275   81.1360   14.1212 C.ar    1  UNL1       -0.0001
     41 C          62.7553   80.9760   12.8193 C.ar    1  UNL1        0.0035
     42 C          63.2491   82.1857   12.0826 C.ar    1  UNL1        0.0675
     43 C          63.9769   82.0258   10.7808 C.3     1  UNL1        0.4183
     44 F          64.7046   81.8659    9.4789 F       1  UNL1       -0.1659
     45 F          62.8800   81.1353   10.2770 F       1  UNL1       -0.1659
     46 F          65.0738   82.9163   11.2846 F       1  UNL1       -0.1659
@<TRIPOS>BOND
     1     1     2    2
     2     2     3   am
     3     3     5    1
     4     5     6    1
     5     6     7   ar
     6     7     8   ar
     7     8     9   ar
     8     9    10   ar
     9    10    11   ar
    10    11    12   ar
    11    12    13   ar
    12    13    14   ar
    13    14    15    1
    14    15    18    1
    15    18    19   ar
    16    19    20   ar
    17    20    21   ar
    18    21    22   ar
    19    22    23   ar
    20    15    16    1
    21    16    17    1
    22     2    24    1
    23    24    36    1
    24    36    37    1
    25    37    38   ar
    26    38    39   ar
    27    39    40   ar
    28    40    41   ar
    29    41    42   ar
    30    42    43    1
    31    43    44    1
    32    43    45    1
    33    43    46    1
    34    24    25    1
    35    25    26   am
    36    26    27    2
    37    26    29    1
    38    29    32    1
    39    32    33    1
    40    32    34    1
    41    32    35    1
    42    29    30    1
    43    30    31    1
    44    14     6   ar
    45    17    15    1
    46    42    37   ar
    47    31    29    1
    48    13     8   ar
    49    23    18   ar
    50     3     4    1
    51    25    28    1
@<TRIPOS>MOLECULE
*****
 46 51 0 0 0
SMALL
GASTEIGER

@<TRIPOS>ATOM
      1 O          61.6133   89.7385   12.3552 O.2     1  UNL1       -0.2733
      2 C          62.4513   88.4962   12.2894 C.2     1  UNL1        0.2410
      3 N          63.7479   88.4254   13.0403 N.am    1  UNL1       -0.2966
      4 H          64.2979   87.6100   12.9970 H       1  UNL1        0.1499
      5 C          64.2065   89.5970   13.8570 C.3     1  UNL1        0.1543
      6 C          64.6523   90.8572   13.1765 C.ar    1  UNL1        0.1417
      7 N          64.5363   91.1564   11.7112 N.ar    1  UNL1       -0.2276
      8 C          65.1047   92.5236   11.4709 C.ar    1  UNL1        0.1167
      9 C          65.2571   93.3421   10.2232 C.ar    1  UNL1        0.0238
     10 C          65.8769   94.7063   10.2922 C.ar    1  UNL1        0.0223
     11 C          66.3442   95.2520   11.6089 C.ar    1  UNL1        0.1006
     12 N          66.1918   94.4335   12.8566 N.ar    1  UNL1       -0.2252
     13 C          65.5721   93.0693   12.7876 C.ar    1  UNL1        0.1626
     14 N          65.2925   92.0394   13.8417 N.ar    1  UNL1       -0.2990
     15 C          65.5992   92.1690   15.3043 C.3     1  UNL1        0.0898
     16 C          65.3954   92.1971   16.7901 C.3     1  UNL1        0.0273
     17 C          64.2359   91.9217   15.8793 C.3     1  UNL1        0.0273
     18 C          67.0689   92.4613   15.2374 C.ar    1  UNL1       -0.0037
     19 C          67.6599   93.5358   16.1011 C.ar    1  UNL1       -0.0025
     20 C          69.1297   93.8281   16.0342 C.ar    1  UNL1       -0.0003
     21 C          70.0083   93.0459   15.1035 C.ar    1  UNL1       -0.0000
     22 C          69.4172   91.9714   14.2397 C.ar    1  UNL1       -0.0003
     23 C          67.9475   91.6791   14.3067 C.ar    1  UNL1       -0.0025
     24 C          61.9928   87.3245   11.4726 C.3     1  UNL1        0.1529
     25 N          61.6201   87.5144   10.0321 N.am    1  UNL1       -0.2979
     26 C          60.2322   87.9515    9.6678 C.2     1  UNL1        0.2299
     27 O          59.2170   88.1987   10.7440 O.2     1  UNL1       -0.2748
     28 H          62.2864   87.3522    9.3257 H       1  UNL1        0.1498
     29 C          59.8595   88.1414    8.2273 C.3     1  UNL1        0.1557
     30 C          59.5135   88.8286    6.9397 C.3     1  UNL1        0.0177
     31 C          59.8068   89.6393    8.1671 C.3     1  UNL1        0.0177
     32 C          59.7827   86.7095    7.7871 C.3     1  UNL1        0.4048
     33 F          59.7058   85.2775    7.3470 F       1  UNL1       -0.1695
     34 F          61.2464   86.7315    7.4599 F       1  UNL1       -0.1695
     35 F          58.3190   86.6874    8.1143 F       1  UNL1       -0.1695
     36 C          61.9069   85.9631   12.0963 C.3     1  UNL1        0.0552
     37 C          62.8039   84.8605   11.6168 C.ar    1  UNL1       -0.0161
     38 C          62.9568   84.6038   10.1469 C.ar    1  UNL1       -0.0042
     39 C          63.8538   83.5013    9.6674 C.ar    1  UNL1       -0.0003
     40 C          64.5978   82.6555   10.6579 C.ar    1  UNL1       -0.0001
     41 C          64.4448   82.9122   12.1278 C.ar    1  UNL1        0.0035
     42 C          63.5479   84.0147   12.6073 C.ar    1  UNL1        0.0675
     43 C          63.3950   84.2715   14.0772 C.3     1  UNL1        0.4183
     44 F          63.2421   84.5282   15.5472 F       1  UNL1       -0.1659
     45 F          64.5130   85.2698   14.0192 F       1  UNL1       -0.1659
     46 F          62.2770   83.2731   14.1353 F       1  UNL1       -0.1659
@<TRIPOS>BOND
     1     1     2    2
     2     2     3   am
     3     3     5    1
     4     5     6    1
     5     6     7   ar
     6     7     8   ar
     7     8     9   ar
     8     9    10   ar
     9    10    11   ar
    10    11    12   ar
    11    12    13   ar
    12    13    14   ar
    13    14    15    1
    14    15    18    1
    15    18    19   ar
    16    19    20   ar
    17    20    21   ar
    18    21    22   ar
    19    22    23   ar
    20    15    16    1
    21    16    17    1
    22     2    24    1
    23    24    36    1
    24    36    37    1
    25    37    38   ar
    26    38    39   ar
    27    39    40   ar
    28    40    41   ar
    29    41    42   ar
    30    42    43    1
    31    43    44    1
    32    43    45    1
    33    43    46    1
    34    24    25    1
    35    25    26   am
    36    26    27    2
    37    26    29    1
    38    29    32    1
    39    32    33    1
    40    32    34    1
    41    32    35    1
    42    29    30    1
    43    30    31    1
    44    14     6   ar
    45    17    15    1
    46    42    37   ar
    47    31    29    1
    48    13     8   ar
    49    23    18   ar
    50     3     4    1
    51    25    28    1
@<TRIPOS>MOLECULE
*****
 46 51 0 0 0
SMALL
GASTEIGER

@<TRIPOS>ATOM
      1 O          61.6459   88.7400   12.2969 O.2     1  UNL1       -0.2733
      2 C          62.7113   87.7470   12.6556 C.2     1  UNL1        0.2410
      3 N          63.7918   88.1238   13.6255 N.am    1  UNL1       -0.2966
      4 H          64.4911   87.4721   13.8609 H       1  UNL1        0.1499
      5 C          63.8068   89.4936   14.2366 C.3     1  UNL1        0.1543
      6 C          64.3253   90.6604   13.4493 C.ar    1  UNL1        0.1417
      7 N          64.1967   90.8509   11.9671 N.ar    1  UNL1       -0.2276
      8 C          64.8553   92.1499   11.6078 C.ar    1  UNL1        0.1167
      9 C          65.0364   92.8542   10.2959 C.ar    1  UNL1        0.0238
     10 C          65.7532   94.1708   10.2443 C.ar    1  UNL1        0.0223
     11 C          66.2887   94.7831   11.5045 C.ar    1  UNL1        0.1006
     12 N          66.1076   94.0788   12.8164 N.ar    1  UNL1       -0.2252
     13 C          65.3908   92.7622   12.8680 C.ar    1  UNL1        0.1626
     14 N          65.0633   91.8416   14.0062 N.ar    1  UNL1       -0.2990
     15 C          65.4124   92.0634   15.4480 C.3     1  UNL1        0.0898
     16 C          65.2526   92.1834   16.9346 C.3     1  UNL1        0.0273
     17 C          64.0682   91.8473   16.0778 C.3     1  UNL1        0.0273
     18 C          66.8778   92.3565   15.3191 C.ar    1  UNL1       -0.0037
     19 C          67.7196   91.5650   14.3627 C.ar    1  UNL1       -0.0025
     20 C          69.1851   91.8581   14.2337 C.ar    1  UNL1       -0.0003
     21 C          69.8086   92.9428   15.0612 C.ar    1  UNL1       -0.0000
     22 C          68.9667   93.7344   16.0176 C.ar    1  UNL1       -0.0003
     23 C          67.5013   93.4412   16.1465 C.ar    1  UNL1       -0.0025
     24 C          62.6963   86.3772   12.0445 C.3     1  UNL1        0.1529
     25 N          61.7312   86.0587   10.9413 N.am    1  UNL1       -0.2979
     26 C          61.7404   86.8696    9.6794 C.2     1  UNL1        0.2299
     27 O          62.7146   87.9990    9.5207 O.2     1  UNL1       -0.2748
     28 H          61.0917   85.3174   11.0455 H       1  UNL1        0.1498
     29 C          60.7752   86.5511    8.5762 C.3     1  UNL1        0.1557
     30 C          59.5278   86.5766    7.7436 C.3     1  UNL1        0.0177
     31 C          59.6271   87.4313    8.9723 C.3     1  UNL1        0.0177
     32 C          61.5882   85.5602    7.7969 C.3     1  UNL1        0.4048
     33 F          62.4013   84.5693    7.0176 F       1  UNL1       -0.1695
     34 F          60.3557   85.1298    7.0582 F       1  UNL1       -0.1695
     35 F          62.8208   85.9905    8.5355 F       1  UNL1       -0.1695
     36 C          63.6464   85.3260   12.5366 C.3     1  UNL1        0.0552
     37 C          63.1835   83.9069   12.6851 C.ar    1  UNL1       -0.0161
     38 C          63.1280   83.0068   11.4864 C.ar    1  UNL1       -0.0042
     39 C          62.6651   81.5878   11.6349 C.ar    1  UNL1       -0.0003
     40 C          62.2577   81.0688   12.9819 C.ar    1  UNL1       -0.0001
     41 C          62.3132   81.9689   14.1806 C.ar    1  UNL1        0.0035
     42 C          62.7761   83.3879   14.0322 C.ar    1  UNL1        0.0675
     43 C          62.8315   84.2880   15.2309 C.3     1  UNL1        0.4183
     44 F          62.8870   85.1881   16.4295 F       1  UNL1       -0.1659
     45 F          64.2871   83.9689   15.4031 F       1  UNL1       -0.1659
     46 F          61.3760   84.6071   15.0586 F       1  UNL1       -0.1659
@<TRIPOS>BOND
     1     1     2    2
     2     2     3   am
     3     3     5    1
     4     5     6    1
     5     6     7   ar
     6     7     8   ar
     7     8     9   ar
     8     9    10   ar
     9    10    11   ar
    10    11    12   ar
    11    12    13   ar
    12    13    14   ar
    13    14    15    1
    14    15    18    1
    15    18    19   ar
    16    19    20   ar
    17    20    21   ar
    18    21    22   ar
    19    22    23   ar
    20    15    16    1
    21    16    17    1
    22     2    24    1
    23    24    36    1
    24    36    37    1
    25    37    38   ar
    26    38    39   ar
    27    39    40   ar
    28    40    41   ar
    29    41    42   ar
    30    42    43    1
    31    43    44    1
    32    43    45    1
    33    43    46    1
    34    24    25    1
    35    25    26   am
    36    26    27    2
    37    26    29    1
    38    29    32    1
    39    32    33    1
    40    32    34    1
    41    32    35    1
    42    29    30    1
    43    30    31    1
    44    14     6   ar
    45    17    15    1
    46    42    37   ar
    47    31    29    1
    48    13     8   ar
    49    23    18   ar
    50     3     4    1
    51    25    28    1
@<TRIPOS>MOLECULE
*****
 46 51 0 0 0
SMALL
GASTEIGER

@<TRIPOS>ATOM
      1 O          61.5915   88.9209   12.2935 O.2     1  UNL1       -0.2733
      2 C          62.6693   87.9341   12.6315 C.2     1  UNL1        0.2410
      3 N          63.7765   88.3233   13.5657 N.am    1  UNL1       -0.2966
      4 H          64.4840   87.6755   13.7875 H       1  UNL1        0.1499
      5 C          63.8058   89.6993   14.1619 C.3     1  UNL1        0.1543
      6 C          64.3742   90.8446   13.3776 C.ar    1  UNL1        0.1417
      7 N          64.2538   91.0444   11.8959 N.ar    1  UNL1       -0.2276
      8 C          64.9680   92.3145   11.5398 C.ar    1  UNL1        0.1167
      9 C          65.1793   93.0138   10.2297 C.ar    1  UNL1        0.0238
     10 C          65.9524   94.2982   10.1814 C.ar    1  UNL1        0.0223
     11 C          66.5143   94.8834   11.4431 C.ar    1  UNL1        0.1006
     12 N          66.3029   94.1842   12.7531 N.ar    1  UNL1       -0.2252
     13 C          65.5298   92.8997   12.8015 C.ar    1  UNL1        0.1626
     14 N          65.1628   91.9913   13.9373 N.ar    1  UNL1       -0.2990
     15 C          65.5215   92.1940   15.3796 C.3     1  UNL1        0.0898
     16 C          65.3677   92.3144   16.8669 C.3     1  UNL1        0.0273
     17 C          64.1704   92.0277   16.0099 C.3     1  UNL1        0.0273
     18 C          66.9970   92.4306   15.2504 C.ar    1  UNL1       -0.0037
     19 C          67.6607   93.4950   16.0728 C.ar    1  UNL1       -0.0025
     20 C          69.1363   93.7317   15.9436 C.ar    1  UNL1       -0.0003
     21 C          69.9481   92.9039   14.9918 C.ar    1  UNL1       -0.0000
     22 C          69.2843   91.8395   14.1693 C.ar    1  UNL1       -0.0003
     23 C          67.8088   91.6028   14.2986 C.ar    1  UNL1       -0.0025
     24 C          62.6401   86.5579   12.0352 C.3     1  UNL1        0.1529
     25 N          61.6587   86.2321   10.9486 N.am    1  UNL1       -0.2979
     26 C          61.6770   87.0070    9.6644 C.2     1  UNL1        0.2299
     27 O          62.6767   88.1076    9.4667 O.2     1  UNL1       -0.2748
     28 H          61.0026   85.5096   11.0784 H       1  UNL1        0.1498
     29 C          60.6956   86.6811    8.5778 C.3     1  UNL1        0.1557
     30 C          59.4392   86.7076    7.7588 C.3     1  UNL1        0.0177
     31 C          59.5630   87.5826    8.9708 C.3     1  UNL1        0.0177
     32 C          61.4873   85.6665    7.8073 C.3     1  UNL1        0.4048
     33 F          62.2790   84.6517    7.0368 F       1  UNL1       -0.1695
     34 F          62.7361   86.1045    8.5135 F       1  UNL1       -0.1695
     35 F          60.2386   85.2283    7.1011 F       1  UNL1       -0.1695
     36 C          63.5923   85.5077   12.5255 C.3     1  UNL1        0.0552
     37 C          63.0758   84.1619   12.9404 C.ar    1  UNL1       -0.0161
     38 C          62.4898   83.9724   14.3081 C.ar    1  UNL1       -0.0042
     39 C          61.9733   82.6267   14.7230 C.ar    1  UNL1       -0.0003
     40 C          62.0428   81.4704   13.7701 C.ar    1  UNL1       -0.0001
     41 C          62.6288   81.6598   12.4024 C.ar    1  UNL1        0.0035
     42 C          63.1453   83.0056   11.9875 C.ar    1  UNL1        0.0675
     43 C          63.7312   83.1950   10.6197 C.3     1  UNL1        0.4183
     44 F          64.3172   83.3844    9.2520 F       1  UNL1       -0.1659
     45 F          65.0797   82.7966   11.1422 F       1  UNL1       -0.1659
     46 F          62.3828   83.5934   10.0972 F       1  UNL1       -0.1659
@<TRIPOS>BOND
     1     1     2    2
     2     2     3   am
     3     3     5    1
     4     5     6    1
     5     6     7   ar
     6     7     8   ar
     7     8     9   ar
     8     9    10   ar
     9    10    11   ar
    10    11    12   ar
    11    12    13   ar
    12    13    14   ar
    13    14    15    1
    14    15    18    1
    15    18    19   ar
    16    19    20   ar
    17    20    21   ar
    18    21    22   ar
    19    22    23   ar
    20    15    16    1
    21    16    17    1
    22     2    24    1
    23    24    36    1
    24    36    37    1
    25    37    38   ar
    26    38    39   ar
    27    39    40   ar
    28    40    41   ar
    29    41    42   ar
    30    42    43    1
    31    43    44    1
    32    43    45    1
    33    43    46    1
    34    24    25    1
    35    25    26   am
    36    26    27    2
    37    26    29    1
    38    29    32    1
    39    32    33    1
    40    32    34    1
    41    32    35    1
    42    29    30    1
    43    30    31    1
    44    14     6   ar
    45    17    15    1
    46    42    37   ar
    47    31    29    1
    48    13     8   ar
    49    23    18   ar
    50     3     4    1
    51    25    28    1
@<TRIPOS>MOLECULE
*****
 46 51 0 0 0
SMALL
GASTEIGER

@<TRIPOS>ATOM
      1 O          63.7929   86.4397   13.6553 O.2     1  UNL1       -0.2733
      2 C          63.0134   87.0433   12.5249 C.2     1  UNL1        0.2410
      3 N          63.0441   88.5261   12.3004 N.am    1  UNL1       -0.2966
      4 H          62.5324   88.9223   11.5584 H       1  UNL1        0.1499
      5 C          63.8542   89.4053   13.2063 C.3     1  UNL1        0.1543
      6 C          64.3839   90.7153   12.7031 C.ar    1  UNL1        0.1417
      7 N          64.3933   91.1723   11.2745 N.ar    1  UNL1       -0.2276
      8 C          65.0123   92.5379   11.2286 C.ar    1  UNL1        0.1167
      9 C          65.2844   93.4789   10.0927 C.ar    1  UNL1        0.0238
     10 C          65.9297   94.8069   10.3571 C.ar    1  UNL1        0.0223
     11 C          66.3030   95.1938   11.7574 C.ar    1  UNL1        0.1006
     12 N          66.0309   94.2528   12.8934 N.ar    1  UNL1       -0.2252
     13 C          65.3856   92.9248   12.6289 C.ar    1  UNL1        0.1626
     14 N          64.9972   91.7984   13.5402 N.ar    1  UNL1       -0.2990
     15 C          65.1884   91.7616   15.0275 C.3     1  UNL1        0.0898
     16 C          64.8761   91.5948   16.4851 C.3     1  UNL1        0.0273
     17 C          63.8048   91.3743   15.4587 C.3     1  UNL1        0.0273
     18 C          66.6384   92.1362   15.1130 C.ar    1  UNL1       -0.0037
     19 C          67.6247   91.5404   14.1527 C.ar    1  UNL1       -0.0025
     20 C          69.0747   91.9149   14.2382 C.ar    1  UNL1       -0.0003
     21 C          69.5383   92.8852   15.2840 C.ar    1  UNL1       -0.0000
     22 C          68.5519   93.4809   16.2443 C.ar    1  UNL1       -0.0003
     23 C          67.1020   93.1064   16.1588 C.ar    1  UNL1       -0.0025
     24 C          62.2032   86.1642   11.6189 C.3     1  UNL1        0.1529
     25 N          61.9883   84.7216   11.9692 N.am    1  UNL1       -0.2979
     26 C          63.1306   83.7525   11.8912 C.2     1  UNL1        0.2299
     27 O          64.4879   84.2261   11.4627 O.2     1  UNL1       -0.2748
     28 H          61.0975   84.4108   12.2504 H       1  UNL1        0.1498
     29 C          62.9157   82.3100   12.2415 C.3     1  UNL1        0.1557
     30 C          62.8221   80.8209   12.0874 C.3     1  UNL1        0.0177
     31 C          63.1906   81.6749   10.9107 C.3     1  UNL1        0.0177
     32 C          62.5660   82.4440   13.6940 C.3     1  UNL1        0.4048
     33 F          62.2165   82.5780   15.1466 F       1  UNL1       -0.1695
     34 F          61.2952   81.6827   13.4585 F       1  UNL1       -0.1695
     35 F          63.8368   83.2053   13.9297 F       1  UNL1       -0.1695
     36 C          61.6081   86.7276   10.3626 C.3     1  UNL1        0.0552
     37 C          61.8029   86.0169    9.0560 C.ar    1  UNL1       -0.0161
     38 C          62.9796   85.1063    8.8658 C.ar    1  UNL1       -0.0042
     39 C          63.1745   84.3957    7.5593 C.ar    1  UNL1       -0.0003
     40 C          62.1927   84.5956    6.4431 C.ar    1  UNL1       -0.0001
     41 C          61.0160   85.5063    6.6333 C.ar    1  UNL1        0.0035
     42 C          60.8211   86.2169    7.9398 C.ar    1  UNL1        0.0675
     43 C          59.6445   87.1276    8.1300 C.3     1  UNL1        0.4183
     44 F          58.4678   88.0382    8.3203 F       1  UNL1       -0.1659
     45 F          58.7143   85.9709    7.9135 F       1  UNL1       -0.1659
     46 F          60.5746   88.2842    8.3466 F       1  UNL1       -0.1659
@<TRIPOS>BOND
     1     1     2    2
     2     2     3   am
     3     3     5    1
     4     5     6    1
     5     6     7   ar
     6     7     8   ar
     7     8     9   ar
     8     9    10   ar
     9    10    11   ar
    10    11    12   ar
    11    12    13   ar
    12    13    14   ar
    13    14    15    1
    14    15    18    1
    15    18    19   ar
    16    19    20   ar
    17    20    21   ar
    18    21    22   ar
    19    22    23   ar
    20    15    16    1
    21    16    17    1
    22     2    24    1
    23    24    36    1
    24    36    37    1
    25    37    38   ar
    26    38    39   ar
    27    39    40   ar
    28    40    41   ar
    29    41    42   ar
    30    42    43    1
    31    43    44    1
    32    43    45    1
    33    43    46    1
    34    24    25    1
    35    25    26   am
    36    26    27    2
    37    26    29    1
    38    29    32    1
    39    32    33    1
    40    32    34    1
    41    32    35    1
    42    29    30    1
    43    30    31    1
    44    14     6   ar
    45    17    15    1
    46    42    37   ar
    47    31    29    1
    48    13     8   ar
    49    23    18   ar
    50     3     4    1
    51    25    28    1
@<TRIPOS>MOLECULE
*****
 46 51 0 0 0
SMALL
GASTEIGER

@<TRIPOS>ATOM
      1 O          61.6174   89.4066   12.3880 O.2     1  UNL1       -0.2733
      2 C          62.6608   88.3298   12.4267 C.2     1  UNL1        0.2410
      3 N          63.9032   88.5183   13.2459 N.am    1  UNL1       -0.2966
      4 H          64.5880   87.8115   13.2713 H       1  UNL1        0.1499
      5 C          64.1020   89.7837   14.0264 C.3     1  UNL1        0.1543
      6 C          64.5815   91.0247   13.3336 C.ar    1  UNL1        0.1417
      7 N          64.4408   91.3286   11.8715 N.ar    1  UNL1       -0.2276
      8 C          65.0581   92.6715   11.6155 C.ar    1  UNL1        0.1167
      9 C          65.2122   93.4831   10.3636 C.ar    1  UNL1        0.0238
     10 C          65.8885   94.8209   10.4156 C.ar    1  UNL1        0.0223
     11 C          66.4108   95.3471   11.7196 C.ar    1  UNL1        0.1006
     12 N          66.2568   94.5354   12.9715 N.ar    1  UNL1       -0.2252
     13 C          65.5804   93.1976   12.9195 C.ar    1  UNL1        0.1626
     14 N          65.2858   92.1799   13.9813 N.ar    1  UNL1       -0.2990
     15 C          65.6344   92.2968   15.4356 C.3     1  UNL1        0.0898
     16 C          65.4699   92.3314   16.9261 C.3     1  UNL1        0.0273
     17 C          64.2780   92.1003   16.0452 C.3     1  UNL1        0.0273
     18 C          67.1119   92.5339   15.3311 C.ar    1  UNL1       -0.0037
     19 C          67.9368   91.7186   14.3799 C.ar    1  UNL1       -0.0025
     20 C          69.4143   91.9557   14.2753 C.ar    1  UNL1       -0.0003
     21 C          70.0667   93.0080   15.1220 C.ar    1  UNL1       -0.0000
     22 C          69.2417   93.8233   16.0732 C.ar    1  UNL1       -0.0003
     23 C          67.7643   93.5862   16.1778 C.ar    1  UNL1       -0.0025
     24 C          62.4620   87.0643   11.6462 C.3     1  UNL1        0.1529
     25 N          62.0474   85.8063   12.3501 N.am    1  UNL1       -0.2979
     26 C          63.0231   85.0831   13.2305 C.2     1  UNL1        0.2299
     27 O          64.4133   85.6180   13.4070 O.2     1  UNL1       -0.2748
     28 H          61.1349   85.4553   12.2342 H       1  UNL1        0.1498
     29 C          62.6084   83.8251   13.9344 C.3     1  UNL1        0.1557
     30 C          62.2216   82.3918   14.1486 C.3     1  UNL1        0.0177
     31 C          62.5445   82.8833   12.7687 C.3     1  UNL1        0.0177
     32 C          62.5284   84.3299   15.3446 C.3     1  UNL1        0.4048
     33 F          62.4485   84.8348   16.7549 F       1  UNL1       -0.1695
     34 F          61.0901   84.6981   15.1313 F       1  UNL1       -0.1695
     35 F          63.9668   83.9618   15.5581 F       1  UNL1       -0.1695
     36 C          62.6778   87.0570   10.1618 C.3     1  UNL1        0.0552
     37 C          61.5074   86.9141    9.2345 C.ar    1  UNL1       -0.0161
     38 C          60.4150   87.9420    9.2416 C.ar    1  UNL1       -0.0042
     39 C          59.2447   87.7992    8.3143 C.ar    1  UNL1       -0.0003
     40 C          59.1667   86.6285    7.3799 C.ar    1  UNL1       -0.0001
     41 C          60.2591   85.6005    7.3728 C.ar    1  UNL1        0.0035
     42 C          61.4294   85.7433    8.3001 C.ar    1  UNL1        0.0675
     43 C          62.5218   84.7154    8.2929 C.3     1  UNL1        0.4183
     44 F          63.6141   83.6874    8.2858 F       1  UNL1       -0.1659
     45 F          62.8061   85.0275    6.8536 F       1  UNL1       -0.1659
     46 F          62.2375   84.4032    9.7323 F       1  UNL1       -0.1659
@<TRIPOS>BOND
     1     1     2    2
     2     2     3   am
     3     3     5    1
     4     5     6    1
     5     6     7   ar
     6     7     8   ar
     7     8     9   ar
     8     9    10   ar
     9    10    11   ar
    10    11    12   ar
    11    12    13   ar
    12    13    14   ar
    13    14    15    1
    14    15    18    1
    15    18    19   ar
    16    19    20   ar
    17    20    21   ar
    18    21    22   ar
    19    22    23   ar
    20    15    16    1
    21    16    17    1
    22     2    24    1
    23    24    36    1
    24    36    37    1
    25    37    38   ar
    26    38    39   ar
    27    39    40   ar
    28    40    41   ar
    29    41    42   ar
    30    42    43    1
    31    43    44    1
    32    43    45    1
    33    43    46    1
    34    24    25    1
    35    25    26   am
    36    26    27    2
    37    26    29    1
    38    29    32    1
    39    32    33    1
    40    32    34    1
    41    32    35    1
    42    29    30    1
    43    30    31    1
    44    14     6   ar
    45    17    15    1
    46    42    37   ar
    47    31    29    1
    48    13     8   ar
    49    23    18   ar
    50     3     4    1
    51    25    28    1
@<TRIPOS>MOLECULE
*****
 46 51 0 0 0
SMALL
GASTEIGER

@<TRIPOS>ATOM
      1 O          60.8573   87.7461   11.7415 O.2     1  UNL1       -0.2733
      2 C          62.2391   87.2256   12.0057 C.2     1  UNL1        0.2410
      3 N          63.2568   88.1039   12.6712 N.am    1  UNL1       -0.2966
      4 H          64.1637   87.7622   12.8446 H       1  UNL1        0.1499
      5 C          62.8928   89.5026   13.0724 C.3     1  UNL1        0.1543
      6 C          63.9624   90.4609   13.5057 C.ar    1  UNL1        0.1417
      7 N          64.5854   90.5295   14.8684 N.ar    1  UNL1       -0.2276
      8 C          65.6047   91.6299   14.8573 C.ar    1  UNL1        0.1167
      9 C          66.5275   92.1541   15.9173 C.ar    1  UNL1        0.0238
     10 C          67.4571   93.2898   15.6077 C.ar    1  UNL1        0.0223
     11 C          67.4640   93.9013   14.2380 C.ar    1  UNL1        0.1006
     12 N          66.5413   93.3771   13.1780 N.ar    1  UNL1       -0.2252
     13 C          65.6116   92.2415   13.4876 C.ar    1  UNL1        0.1626
     14 N          64.5966   91.5190   12.6523 N.ar    1  UNL1       -0.2990
     15 C          64.2727   91.8045   11.2158 C.3     1  UNL1        0.0898
     16 C          63.5025   91.8675    9.9302 C.3     1  UNL1        0.0273
     17 C          62.8752   91.2630   11.1513 C.3     1  UNL1        0.0273
     18 C          65.5575   92.4450   10.7814 C.ar    1  UNL1       -0.0037
     19 C          66.8059   91.6211   10.6695 C.ar    1  UNL1       -0.0025
     20 C          68.0909   92.2617   10.2350 C.ar    1  UNL1       -0.0003
     21 C          68.1272   93.7262    9.9125 C.ar    1  UNL1       -0.0000
     22 C          66.8787   94.5501   10.0244 C.ar    1  UNL1       -0.0003
     23 C          65.5939   93.9095   10.4589 C.ar    1  UNL1       -0.0025
     24 C          62.6032   85.8268   11.6045 C.3     1  UNL1        0.1529
     25 N          62.1058   85.2658   10.3053 N.am    1  UNL1       -0.2979
     26 C          62.2311   86.0688    9.0445 C.2     1  UNL1        0.2299
     27 O          62.8539   87.4328    9.0830 O.2     1  UNL1       -0.2748
     28 H          61.6970   84.3705   10.2801 H       1  UNL1        0.1498
     29 C          61.7337   85.5078    7.7454 C.3     1  UNL1        0.1557
     30 C          61.7243   84.7644    6.4426 C.3     1  UNL1        0.0177
     31 C          62.9661   84.7879    7.2837 C.3     1  UNL1        0.0177
     32 C          60.3287   86.0328    7.7558 C.3     1  UNL1        0.4048
     33 F          58.9235   86.5577    7.7662 F       1  UNL1       -0.1695
     34 F          60.7870   87.2446    8.5117 F       1  UNL1       -0.1695
     35 F          59.8703   84.8210    6.9999 F       1  UNL1       -0.1695
     36 C          63.4646   84.9892   12.5024 C.3     1  UNL1        0.0552
     37 C          63.1060   83.5560   12.7623 C.ar    1  UNL1       -0.0161
     38 C          63.0982   82.5682   11.6335 C.ar    1  UNL1       -0.0042
     39 C          62.7397   81.1351   11.8935 C.ar    1  UNL1       -0.0003
     40 C          62.3888   80.6898   13.2822 C.ar    1  UNL1       -0.0001
     41 C          62.3966   81.6776   14.4110 C.ar    1  UNL1        0.0035
     42 C          62.7551   83.1107   14.1511 C.ar    1  UNL1        0.0675
     43 C          62.7629   84.0985   15.2799 C.3     1  UNL1        0.4183
     44 F          62.7706   85.0863   16.4087 F       1  UNL1       -0.1659
     45 F          64.2132   83.8055   15.5263 F       1  UNL1       -0.1659
     46 F          61.3126   84.3915   15.0334 F       1  UNL1       -0.1659
@<TRIPOS>BOND
     1     1     2    2
     2     2     3   am
     3     3     5    1
     4     5     6    1
     5     6     7   ar
     6     7     8   ar
     7     8     9   ar
     8     9    10   ar
     9    10    11   ar
    10    11    12   ar
    11    12    13   ar
    12    13    14   ar
    13    14    15    1
    14    15    18    1
    15    18    19   ar
    16    19    20   ar
    17    20    21   ar
    18    21    22   ar
    19    22    23   ar
    20    15    16    1
    21    16    17    1
    22     2    24    1
    23    24    36    1
    24    36    37    1
    25    37    38   ar
    26    38    39   ar
    27    39    40   ar
    28    40    41   ar
    29    41    42   ar
    30    42    43    1
    31    43    44    1
    32    43    45    1
    33    43    46    1
    34    24    25    1
    35    25    26   am
    36    26    27    2
    37    26    29    1
    38    29    32    1
    39    32    33    1
    40    32    34    1
    41    32    35    1
    42    29    30    1
    43    30    31    1
    44    14     6   ar
    45    17    15    1
    46    42    37   ar
    47    31    29    1
    48    13     8   ar
    49    23    18   ar
    50     3     4    1
    51    25    28    1
