@<TRIPOS>MOLECULE
*****
 31 35 0 0 0
SMALL
GASTEIGER

@<TRIPOS>ATOM
      1 C          65.3073   91.7291   14.1188 C.ar    1  UNL1        0.0615
      2 C          66.2318   92.6153   14.8997 C.ar    1  UNL1        0.0900
      3 CL         66.5730   92.2767   16.3206 Cl      1  UNL1       -0.0793
      4 C          66.8151   93.8402   14.2597 C.ar    1  UNL1        0.1115
      5 N          66.4739   94.1787   12.8388 N.ar    1  UNL1       -0.2413
      6 C          65.5493   93.2924   12.0579 C.ar    1  UNL1        0.1001
      7 C          64.9660   92.0677   12.6979 C.ar    1  UNL1        0.0333
      8 O          64.8182   86.1893   14.5982 O.2     1  UNL1       -0.2751
      9 C          63.8688   86.6342   15.6708 C.2     1  UNL1        0.2217
     10 N          63.0641   85.7369   16.5637 N.am    1  UNL1       -0.3043
     11 C          62.2552   86.6028   17.4836 C.3     1  UNL1        0.0899
     12 C          62.5601   88.0353   17.1591 C.3     1  UNL1        0.0300
     13 C          63.5573   88.0547   16.0387 C.3     1  UNL1        0.0737
     14 C          63.1485   89.4169   16.5154 C.3     1  UNL1        0.0301
     15 C          63.7318   90.6417   15.8754 C.3     1  UNL1        0.0913
     16 N          64.7239   90.5042   14.7588 N.pl3   1  UNL1       -0.3067
     17 C          65.1327   89.1420   14.2822 C.3     1  UNL1        0.0913
     18 C          64.5494   87.9172   14.9221 C.3     1  UNL1        0.0301
     19 H          63.0664   84.7525   16.5486 H       1  UNL1        0.1494
     20 C          64.0414   91.1814   11.9170 C.ar    1  UNL1        0.0028
     21 C          63.7012   91.5192   10.4957 C.ar    1  UNL1        0.0014
     22 C          62.7767   90.6330    9.7148 C.ar    1  UNL1        0.0145
     23 C          62.1924   89.4089   10.3552 C.ar    1  UNL1        0.0480
     24 C          62.5326   89.0711   11.7765 C.ar    1  UNL1        0.0145
     25 C          63.4571   89.9573   12.5574 C.ar    1  UNL1        0.0014
     26 N          61.2678   88.5226    9.5743 N.pl3   1  UNL1       -0.3028
     27 C          61.4345   87.0329    9.6272 C.3     1  UNL1        0.1231
     28 C          60.5100   86.1466    8.8463 C.3     1  UNL1        0.1636
     29 O          59.4187   86.7501    8.0126 O.3     1  UNL1       -0.3501
     30 C          59.2521   88.2398    7.9598 C.3     1  UNL1        0.1636
     31 C          60.1766   89.1261    8.7407 C.3     1  UNL1        0.1231
@<TRIPOS>BOND
     1     8     9    2
     2     9    10   am
     3    10    11    1
     4    11    12    1
     5    12    13    1
     6    13    14    1
     7    14    15    1
     8    15    16    1
     9    16     1    1
    10     1     2   ar
    11     2     3    1
    12     2     4   ar
    13     4     5   ar
    14     5     6   ar
    15     6     7   ar
    16     7    20    1
    17    20    21   ar
    18    21    22   ar
    19    22    23   ar
    20    23    26    1
    21    26    27    1
    22    27    28    1
    23    28    29    1
    24    29    30    1
    25    30    31    1
    26    23    24   ar
    27    24    25   ar
    28    16    17    1
    29    17    18    1
    30    13     9    1
    31     7     1   ar
    32    25    20   ar
    33    18    13    1
    34    31    26    1
    35    10    19    1
@<TRIPOS>MOLECULE
*****
 31 35 0 0 0
SMALL
GASTEIGER

@<TRIPOS>ATOM
      1 C          60.6927   87.3202    8.7560 C.ar    1  UNL1        0.0615
      2 C          59.8763   86.7814    7.6189 C.ar    1  UNL1        0.0900
      3 CL         59.8912   85.3127    7.3147 Cl      1  UNL1       -0.0793
      4 C          59.0448   87.7115    6.7859 C.ar    1  UNL1        0.1115
      5 N          59.0298   89.1802    7.0901 N.ar    1  UNL1       -0.2413
      6 C          59.8463   89.7189    8.2273 C.ar    1  UNL1        0.1001
      7 C          60.6777   88.7890    9.0602 C.ar    1  UNL1        0.0333
      8 O          62.1234   85.0512   13.6512 O.2     1  UNL1       -0.2751
      9 C          63.0803   84.3422   12.7393 C.2     1  UNL1        0.2217
     10 N          64.0985   83.3207   13.1516 N.am    1  UNL1       -0.3043
     11 C          64.8345   82.8774   11.9220 C.3     1  UNL1        0.0899
     12 C          64.2712   83.6250   10.7498 C.3     1  UNL1        0.0300
     13 C          63.1870   84.5302   11.2549 C.3     1  UNL1        0.0737
     14 C          63.4087   84.6113    9.7736 C.3     1  UNL1        0.0301
     15 C          62.5773   85.5413    8.9407 C.3     1  UNL1        0.0913
     16 N          61.5242   86.3902    9.5890 N.pl3   1  UNL1       -0.3067
     17 C          61.3025   86.3091   11.0703 C.3     1  UNL1        0.0913
     18 C          62.1339   85.3791   11.9032 C.3     1  UNL1        0.0301
     19 H          64.2560   82.9979   14.0682 H       1  UNL1        0.1494
     20 C          61.4942   89.3277   10.1974 C.ar    1  UNL1        0.0028
     21 C          62.8368   89.9416    9.9319 C.ar    1  UNL1        0.0014
     22 C          63.6533   90.4804   11.0690 C.ar    1  UNL1        0.0145
     23 C          63.1272   90.4051   12.4717 C.ar    1  UNL1        0.0480
     24 C          61.7846   89.7912   12.7372 C.ar    1  UNL1        0.0145
     25 C          60.9681   89.2525   11.6001 C.ar    1  UNL1        0.0014
     26 N          63.9437   90.9439   13.6089 N.pl3   1  UNL1       -0.3028
     27 C          63.4948   90.7262   15.0235 C.3     1  UNL1        0.1231
     28 C          64.3112   91.2649   16.1607 C.3     1  UNL1        0.1636
     29 O          65.5766   92.0213   15.8833 O.3     1  UNL1       -0.3501
     30 C          66.0254   92.2390   14.4687 C.3     1  UNL1        0.1636
     31 C          65.2089   91.7002   13.3315 C.3     1  UNL1        0.1231
@<TRIPOS>BOND
     1     8     9    2
     2     9    10   am
     3    10    11    1
     4    11    12    1
     5    12    13    1
     6    13    14    1
     7    14    15    1
     8    15    16    1
     9    16     1    1
    10     1     2   ar
    11     2     3    1
    12     2     4   ar
    13     4     5   ar
    14     5     6   ar
    15     6     7   ar
    16     7    20    1
    17    20    21   ar
    18    21    22   ar
    19    22    23   ar
    20    23    26    1
    21    26    27    1
    22    27    28    1
    23    28    29    1
    24    29    30    1
    25    30    31    1
    26    23    24   ar
    27    24    25   ar
    28    16    17    1
    29    17    18    1
    30    13     9    1
    31     7     1   ar
    32    25    20   ar
    33    18    13    1
    34    31    26    1
    35    10    19    1
@<TRIPOS>MOLECULE
*****
 31 35 0 0 0
SMALL
GASTEIGER

@<TRIPOS>ATOM
      1 C          60.7733   87.3027    8.8709 C.ar    1  UNL1        0.0615
      2 C          59.9651   86.7362    7.7414 C.ar    1  UNL1        0.0900
      3 CL         59.9431   85.2553    7.5037 Cl      1  UNL1       -0.0793
      4 C          59.1789   87.6507    6.8493 C.ar    1  UNL1        0.1115
      5 N          59.2009   89.1316    7.0869 N.ar    1  UNL1       -0.2413
      6 C          60.0091   89.6980    8.2166 C.ar    1  UNL1        0.1001
      7 C          60.7953   88.7836    9.1085 C.ar    1  UNL1        0.0333
      8 O          64.6323   83.3540    9.6921 O.2     1  UNL1       -0.2751
      9 C          64.1830   83.5849   11.1044 C.2     1  UNL1        0.2217
     10 N          64.7057   82.8821   12.3220 N.am    1  UNL1       -0.3043
     11 C          63.9777   83.4221   13.5173 C.3     1  UNL1        0.0899
     12 C          63.0050   84.4587   13.0382 C.3     1  UNL1        0.0300
     13 C          63.1318   84.5593   11.5470 C.3     1  UNL1        0.0737
     14 C          62.1083   85.4841   12.1360 C.3     1  UNL1        0.0301
     15 C          61.3221   86.3986   11.2440 C.3     1  UNL1        0.0913
     16 N          61.5595   86.3882    9.7629 N.pl3   1  UNL1       -0.3067
     17 C          62.5831   85.4633    9.1739 C.3     1  UNL1        0.0913
     18 C          63.3692   84.5489   10.0659 C.3     1  UNL1        0.0301
     19 H          65.4040   82.1882   12.3346 H       1  UNL1        0.1494
     20 C          61.6036   89.3500   10.2382 C.ar    1  UNL1        0.0028
     21 C          62.9115   90.0288    9.9579 C.ar    1  UNL1        0.0014
     22 C          63.7197   90.5952   11.0874 C.ar    1  UNL1        0.0145
     23 C          63.2200   90.4827   12.4972 C.ar    1  UNL1        0.0480
     24 C          61.9121   89.8039   12.7775 C.ar    1  UNL1        0.0145
     25 C          61.1039   89.2375   11.6480 C.ar    1  UNL1        0.0014
     26 N          64.0283   91.0491   13.6269 N.pl3   1  UNL1       -0.3028
     27 C          63.5831   90.8434   15.0444 C.3     1  UNL1        0.1231
     28 C          64.3913   91.4097   16.1740 C.3     1  UNL1        0.1636
     29 O          65.6447   92.1819   15.8861 O.3     1  UNL1       -0.3501
     30 C          66.0899   92.3876   14.4685 C.3     1  UNL1        0.1636
     31 C          65.2816   91.8212   13.3389 C.3     1  UNL1        0.1231
@<TRIPOS>BOND
     1     8     9    2
     2     9    10   am
     3    10    11    1
     4    11    12    1
     5    12    13    1
     6    13    14    1
     7    14    15    1
     8    15    16    1
     9    16     1    1
    10     1     2   ar
    11     2     3    1
    12     2     4   ar
    13     4     5   ar
    14     5     6   ar
    15     6     7   ar
    16     7    20    1
    17    20    21   ar
    18    21    22   ar
    19    22    23   ar
    20    23    26    1
    21    26    27    1
    22    27    28    1
    23    28    29    1
    24    29    30    1
    25    30    31    1
    26    23    24   ar
    27    24    25   ar
    28    16    17    1
    29    17    18    1
    30    13     9    1
    31     7     1   ar
    32    25    20   ar
    33    18    13    1
    34    31    26    1
    35    10    19    1
@<TRIPOS>MOLECULE
*****
 31 35 0 0 0
SMALL
GASTEIGER

@<TRIPOS>ATOM
      1 C          63.1499   89.3561   11.9366 C.ar    1  UNL1        0.0615
      2 C          63.3780   90.8291   11.7687 C.ar    1  UNL1        0.0900
      3 CL         62.7695   91.5545   10.6052 Cl      1  UNL1       -0.0793
      4 C          64.2145   91.5769   12.7642 C.ar    1  UNL1        0.1115
      5 N          64.8230   90.8516   13.9277 N.ar    1  UNL1       -0.2413
      6 C          64.5950   89.3785   14.0956 C.ar    1  UNL1        0.1001
      7 C          63.7584   88.6308   13.1000 C.ar    1  UNL1        0.0333
      8 O          62.5354   85.5436    7.9060 O.2     1  UNL1       -0.2751
      9 C          61.1268   86.0479    8.0125 C.2     1  UNL1        0.2217
     10 N          59.9575   85.5757    7.2002 N.am    1  UNL1       -0.3043
     11 C          58.7481   86.3490    7.6357 C.3     1  UNL1        0.0899
     12 C          59.1701   87.2991    8.7171 C.3     1  UNL1        0.0300
     13 C          60.6402   87.1130    8.9500 C.3     1  UNL1        0.0737
     14 C          60.0112   88.1565    9.8248 C.3     1  UNL1        0.0301
     15 C          60.8478   88.9042   10.8203 C.3     1  UNL1        0.0913
     16 N          62.3133   88.6084   10.9410 N.pl3   1  UNL1       -0.3067
     17 C          62.9424   87.5649   10.0662 C.3     1  UNL1        0.0913
     18 C          62.1058   86.8172    9.0706 C.3     1  UNL1        0.0301
     19 H          59.9799   84.8804    6.5036 H       1  UNL1        0.1494
     20 C          63.5303   87.1577   13.2679 C.ar    1  UNL1        0.0028
     21 C          64.2191   86.4134   14.3731 C.ar    1  UNL1        0.0014
     22 C          63.9911   84.9404   14.5410 C.ar    1  UNL1        0.0145
     23 C          63.0743   84.2118   13.6037 C.ar    1  UNL1        0.0480
     24 C          62.3856   84.9561   12.4985 C.ar    1  UNL1        0.0145
     25 C          62.6136   86.4291   12.3306 C.ar    1  UNL1        0.0014
     26 N          62.8462   82.7387   13.7716 N.pl3   1  UNL1       -0.3028
     27 C          61.4803   82.2262   14.1206 C.3     1  UNL1        0.1231
     28 C          61.2522   80.7532   14.2885 C.3     1  UNL1        0.1636
     29 O          62.3900   79.7926   14.1074 O.3     1  UNL1       -0.3501
     30 C          63.7559   80.3051   13.7584 C.3     1  UNL1        0.1636
     31 C          63.9840   81.7781   13.5905 C.3     1  UNL1        0.1231
@<TRIPOS>BOND
     1     8     9    2
     2     9    10   am
     3    10    11    1
     4    11    12    1
     5    12    13    1
     6    13    14    1
     7    14    15    1
     8    15    16    1
     9    16     1    1
    10     1     2   ar
    11     2     3    1
    12     2     4   ar
    13     4     5   ar
    14     5     6   ar
    15     6     7   ar
    16     7    20    1
    17    20    21   ar
    18    21    22   ar
    19    22    23   ar
    20    23    26    1
    21    26    27    1
    22    27    28    1
    23    28    29    1
    24    29    30    1
    25    30    31    1
    26    23    24   ar
    27    24    25   ar
    28    16    17    1
    29    17    18    1
    30    13     9    1
    31     7     1   ar
    32    25    20   ar
    33    18    13    1
    34    31    26    1
    35    10    19    1
@<TRIPOS>MOLECULE
*****
 31 35 0 0 0
SMALL
GASTEIGER

@<TRIPOS>ATOM
      1 C          71.0304   71.1761   14.0102 C.ar    1  UNL1        0.0615
      2 C          70.6378   69.7508   13.7568 C.ar    1  UNL1        0.0900
      3 CL         70.6565   68.7567   14.8799 Cl      1  UNL1       -0.0793
      4 C          70.2265   69.3196   12.3802 C.ar    1  UNL1        0.1115
      5 N          70.2078   70.3137   11.2571 N.ar    1  UNL1       -0.2413
      6 C          70.6005   71.7391   11.5106 C.ar    1  UNL1        0.1001
      7 C          71.0118   72.1703   12.8871 C.ar    1  UNL1        0.0333
      8 O          69.9279   72.1427   19.3962 O.2     1  UNL1       -0.2751
      9 C          71.3795   72.5177   19.3501 C.2     1  UNL1        0.2217
     10 N          72.2010   73.0063   20.5061 N.am    1  UNL1       -0.3043
     11 C          73.5938   73.2605   20.0103 C.3     1  UNL1        0.0899
     12 C          73.6329   72.9289   18.5478 C.3     1  UNL1        0.0300
     13 C          72.2644   72.4698   18.1398 C.3     1  UNL1        0.0737
     14 C          73.2649   72.4743   17.0222 C.3     1  UNL1        0.0301
     15 C          72.8535   72.0431   15.6457 C.3     1  UNL1        0.0913
     16 N          71.4417   71.6074   15.3868 N.pl3   1  UNL1       -0.3067
     17 C          70.4413   71.6029   16.5044 C.3     1  UNL1        0.0913
     18 C          70.8526   72.0341   17.8809 C.3     1  UNL1        0.0301
     19 H          71.8821   73.1372   21.4282 H       1  UNL1        0.1494
     20 C          71.4044   73.5957   13.1407 C.ar    1  UNL1        0.0028
     21 C          72.4098   74.2660   12.2520 C.ar    1  UNL1        0.0014
     22 C          72.8024   75.6913   12.5054 C.ar    1  UNL1        0.0145
     23 C          72.1897   76.4463   13.6476 C.ar    1  UNL1        0.0480
     24 C          71.1843   75.7759   14.5363 C.ar    1  UNL1        0.0145
     25 C          70.7917   74.3506   14.2828 C.ar    1  UNL1        0.0014
     26 N          72.5824   77.8717   13.9011 N.pl3   1  UNL1       -0.3028
     27 C          72.5108   78.4336   15.2900 C.3     1  UNL1        0.1231
     28 C          72.9034   79.8589   15.5435 C.3     1  UNL1        0.1636
     29 O          73.3676   80.7223   14.4081 O.3     1  UNL1       -0.3501
     30 C          73.4391   80.1604   13.0192 C.3     1  UNL1        0.1636
     31 C          73.0465   78.7350   12.7657 C.3     1  UNL1        0.1231
@<TRIPOS>BOND
     1     8     9    2
     2     9    10   am
     3    10    11    1
     4    11    12    1
     5    12    13    1
     6    13    14    1
     7    14    15    1
     8    15    16    1
     9    16     1    1
    10     1     2   ar
    11     2     3    1
    12     2     4   ar
    13     4     5   ar
    14     5     6   ar
    15     6     7   ar
    16     7    20    1
    17    20    21   ar
    18    21    22   ar
    19    22    23   ar
    20    23    26    1
    21    26    27    1
    22    27    28    1
    23    28    29    1
    24    29    30    1
    25    30    31    1
    26    23    24   ar
    27    24    25   ar
    28    16    17    1
    29    17    18    1
    30    13     9    1
    31     7     1   ar
    32    25    20   ar
    33    18    13    1
    34    31    26    1
    35    10    19    1
