@<TRIPOS>MOLECULE
*****
 33 35 0 0 0
SMALL
GASTEIGER

@<TRIPOS>ATOM
      1 C          63.5912   85.4182   13.4045 C.ar    1  UNL1        0.1346
      2 C          63.4745   86.8386   12.9371 C.ar    1  UNL1        0.0334
      3 C          62.6012   87.1729   11.7642 C.ar    1  UNL1       -0.0005
      4 C          61.8446   86.0867   11.0588 C.ar    1  UNL1       -0.0098
      5 C          61.9613   84.6662   11.5262 C.ar    1  UNL1       -0.0048
      6 C          62.8347   84.3319   12.6991 C.ar    1  UNL1        0.0109
      7 C          60.9713   86.4210    9.8860 C.3     1  UNL1        0.1227
      8 C          61.1150   85.6584    8.6023 C.2     1  UNL1       -0.0115
      9 C          60.2417   85.9927    7.4295 C.2     1  UNL1        0.0141
     10 C          59.2246   87.0895    7.5403 C.2     1  UNL1        0.0883
     11 N          59.0808   87.8521    8.8239 N.am    1  UNL1       -0.1774
     12 C          59.9541   87.5178    9.9968 C.2     1  UNL1        0.2533
     13 O          59.8103   88.2805   11.2804 O.2     1  UNL1       -0.2723
     14 C          62.9514   82.9114   13.1665 C.3     1  UNL1        0.0218
     15 C          63.9969   82.6537   12.1222 C.3     1  UNL1        0.0045
     16 C          61.9059   83.1690   14.2107 C.3     1  UNL1        0.0045
     17 C          63.0682   81.4908   13.6338 C.3     1  UNL1        0.0045
     18 C          64.0013   85.3939   15.9699 C.3     1  UNL1        0.2525
     19 O          64.4646   85.0839   14.5773 O.3     1  UNL1       -0.4717
     20 C          64.2311   87.9250   13.6425 C.2     1  UNL1        0.0030
     21 C          63.9421   89.3637   13.3317 C.2     1  UNL1        0.0001
     22 C          64.6986   90.4500   14.0371 C.ar    1  UNL1        0.0001
     23 C          65.8054   91.1742   13.3296 C.ar    1  UNL1        0.0013
     24 C          66.5620   92.2605   14.0350 C.ar    1  UNL1        0.0158
     25 C          66.2118   92.6226   15.4479 C.ar    1  UNL1        0.0644
     26 C          65.1050   91.8984   16.1554 C.ar    1  UNL1        0.0158
     27 C          64.3484   90.8120   15.4500 C.ar    1  UNL1        0.0013
     28 N          66.9683   93.7089   16.1532 N.pl3   1  UNL1       -0.2187
     29 H          66.4804   94.4190   16.6296 H       1  UNL1        0.1734
     30 S          68.4682   93.7132   16.1328 S.O2    1  UNL1        0.0558
     31 C          69.9680   93.7175   16.1123 C.3     1  UNL1        0.1996
     32 O          68.4766   92.2453   16.4411 O.2     1  UNL1       -0.1544
     33 O          68.4598   95.1811   15.8245 O.2     1  UNL1       -0.1544
@<TRIPOS>BOND
     1    18    19    1
     2    19     1    1
     3     1     2   ar
     4     2    20    1
     5    20    21    2
     6    21    22    1
     7    22    23   ar
     8    23    24   ar
     9    24    25   ar
    10    25    28    1
    11    28    30    1
    12    30    31    1
    13    30    32    2
    14    30    33    2
    15    25    26   ar
    16    26    27   ar
    17     2     3   ar
    18     3     4   ar
    19     4     7    1
    20     7     8    1
    21     8     9    2
    22     9    10    1
    23    10    11    2
    24    11    12    1
    25    12    13    2
    26     4     5   ar
    27     5     6   ar
    28     6    14    1
    29    14    15    1
    30    14    16    1
    31    14    17    1
    32     6     1   ar
    33    27    22   ar
    34    12     7    1
    35    28    29    1
@<TRIPOS>MOLECULE
*****
 33 35 0 0 0
SMALL
GASTEIGER

@<TRIPOS>ATOM
      1 C          61.9964   87.8923   10.7076 C.ar    1  UNL1        0.1346
      2 C          62.9264   87.7000   11.8686 C.ar    1  UNL1        0.0334
      3 C          63.0989   86.3384   12.4739 C.ar    1  UNL1       -0.0005
      4 C          62.3414   85.1691   11.9180 C.ar    1  UNL1       -0.0098
      5 C          61.4114   85.3615   10.7570 C.ar    1  UNL1       -0.0048
      6 C          61.2389   86.7231   10.1517 C.ar    1  UNL1        0.0109
      7 C          62.5138   83.8075   12.5233 C.3     1  UNL1        0.1227
      8 C          62.8157   82.6293   11.6454 C.2     1  UNL1       -0.0115
      9 C          62.9882   81.2677   12.2507 C.2     1  UNL1        0.0141
     10 C          62.8588   81.0844   13.7338 C.2     1  UNL1        0.0883
     11 N          62.5569   82.2626   14.6116 N.am    1  UNL1       -0.1774
     12 C          62.3844   83.6242   14.0064 C.2     1  UNL1        0.2533
     13 O          62.0826   84.8024   14.8843 O.2     1  UNL1       -0.2723
     14 C          60.3089   86.9154    8.9906 C.3     1  UNL1        0.0218
     15 C          61.2525   86.1527    8.1086 C.3     1  UNL1        0.0045
     16 C          59.3654   87.6781    9.8726 C.3     1  UNL1        0.0045
     17 C          59.3790   87.1077    7.8295 C.3     1  UNL1        0.0045
     18 C          61.1158   90.3312   10.8690 C.3     1  UNL1        0.2525
     19 O          61.8240   89.2539   10.1023 O.3     1  UNL1       -0.4717
     20 C          63.6840   88.8693   12.4245 C.2     1  UNL1        0.0030
     21 C          63.8515   89.0177   13.9077 C.2     1  UNL1        0.0001
     22 C          64.6090   90.1869   14.4637 C.ar    1  UNL1        0.0001
     23 C          64.2212   90.7695   15.7905 C.ar    1  UNL1        0.0013
     24 C          64.9787   91.9387   16.3464 C.ar    1  UNL1        0.0158
     25 C          66.1240   92.5254   15.5755 C.ar    1  UNL1        0.0644
     26 C          66.5118   91.9429   14.2488 C.ar    1  UNL1        0.0158
     27 C          65.7543   90.7736   13.6928 C.ar    1  UNL1        0.0013
     28 N          66.8815   93.6946   16.1315 N.pl3   1  UNL1       -0.2187
     29 H          66.3942   94.4648   16.5038 H       1  UNL1        0.1734
     30 S          68.3815   93.6904   16.1201 S.O2    1  UNL1        0.0558
     31 C          69.8814   93.6862   16.1088 C.3     1  UNL1        0.1996
     32 O          68.3802   92.2360   16.4868 O.2     1  UNL1       -0.1544
     33 O          68.3829   95.1449   15.7534 O.2     1  UNL1       -0.1544
@<TRIPOS>BOND
     1    18    19    1
     2    19     1    1
     3     1     2   ar
     4     2    20    1
     5    20    21    2
     6    21    22    1
     7    22    23   ar
     8    23    24   ar
     9    24    25   ar
    10    25    28    1
    11    28    30    1
    12    30    31    1
    13    30    32    2
    14    30    33    2
    15    25    26   ar
    16    26    27   ar
    17     2     3   ar
    18     3     4   ar
    19     4     7    1
    20     7     8    1
    21     8     9    2
    22     9    10    1
    23    10    11    2
    24    11    12    1
    25    12    13    2
    26     4     5   ar
    27     5     6   ar
    28     6    14    1
    29    14    15    1
    30    14    16    1
    31    14    17    1
    32     6     1   ar
    33    27    22   ar
    34    12     7    1
    35    28    29    1
@<TRIPOS>MOLECULE
*****
 33 35 0 0 0
SMALL
GASTEIGER

@<TRIPOS>ATOM
      1 C          63.5809   85.3907   13.4425 C.ar    1  UNL1        0.1346
      2 C          63.4983   86.8016   12.9398 C.ar    1  UNL1        0.0334
      3 C          62.6724   87.1190   11.7285 C.ar    1  UNL1       -0.0005
      4 C          61.9292   86.0257   11.0199 C.ar    1  UNL1       -0.0098
      5 C          62.0118   84.6149   11.5226 C.ar    1  UNL1       -0.0048
      6 C          62.8376   84.2974   12.7339 C.ar    1  UNL1        0.0109
      7 C          61.1033   86.3432    9.8086 C.3     1  UNL1        0.1227
      8 C          59.8751   87.1940    9.9403 C.2     1  UNL1       -0.0115
      9 C          59.0492   87.5115    8.7290 C.2     1  UNL1        0.0141
     10 C          59.4516   86.9781    7.3861 C.2     1  UNL1        0.0883
     11 N          60.6799   86.1273    7.2544 N.am    1  UNL1       -0.1774
     12 C          61.5057   85.8098    8.4657 C.2     1  UNL1        0.2533
     13 O          62.7341   84.9589    8.3340 O.2     1  UNL1       -0.2723
     14 C          62.9202   82.8865   13.2365 C.3     1  UNL1        0.0218
     15 C          61.8673   83.1899   14.2609 C.3     1  UNL1        0.0045
     16 C          63.9731   82.5831   12.2122 C.3     1  UNL1        0.0045
     17 C          63.0027   81.4757   13.7392 C.3     1  UNL1        0.0045
     18 C          63.9067   85.4399   16.0195 C.3     1  UNL1        0.2525
     19 O          64.4067   85.0733   14.6537 O.3     1  UNL1       -0.4717
     20 C          64.2415   87.8950   13.6484 C.2     1  UNL1        0.0030
     21 C          63.9627   89.3303   13.3136 C.2     1  UNL1        0.0001
     22 C          64.7059   90.4237   14.0222 C.ar    1  UNL1        0.0001
     23 C          64.3503   90.7784   15.4356 C.ar    1  UNL1        0.0013
     24 C          65.0935   91.8718   16.1442 C.ar    1  UNL1        0.0158
     25 C          66.1923   92.6106   15.4393 C.ar    1  UNL1        0.0644
     26 C          66.5479   92.2560   14.0259 C.ar    1  UNL1        0.0158
     27 C          65.8047   91.1625   13.3173 C.ar    1  UNL1        0.0013
     28 N          66.9355   93.7040   16.1478 N.pl3   1  UNL1       -0.2187
     29 H          66.4389   94.4098   16.6217 H       1  UNL1        0.1734
     30 S          68.4354   93.7221   16.1345 S.O2    1  UNL1        0.0558
     31 C          69.9352   93.7402   16.1211 C.3     1  UNL1        0.1996
     32 O          68.4558   92.2552   16.4470 O.2     1  UNL1       -0.1544
     33 O          68.4150   95.1890   15.8219 O.2     1  UNL1       -0.1544
@<TRIPOS>BOND
     1    18    19    1
     2    19     1    1
     3     1     2   ar
     4     2    20    1
     5    20    21    2
     6    21    22    1
     7    22    23   ar
     8    23    24   ar
     9    24    25   ar
    10    25    28    1
    11    28    30    1
    12    30    31    1
    13    30    32    2
    14    30    33    2
    15    25    26   ar
    16    26    27   ar
    17     2     3   ar
    18     3     4   ar
    19     4     7    1
    20     7     8    1
    21     8     9    2
    22     9    10    1
    23    10    11    2
    24    11    12    1
    25    12    13    2
    26     4     5   ar
    27     5     6   ar
    28     6    14    1
    29    14    15    1
    30    14    16    1
    31    14    17    1
    32     6     1   ar
    33    27    22   ar
    34    12     7    1
    35    28    29    1
@<TRIPOS>MOLECULE
*****
 33 35 0 0 0
SMALL
GASTEIGER

@<TRIPOS>ATOM
      1 C          63.9393   90.4091   13.2239 C.ar    1  UNL1        0.1346
      2 C          63.2521   89.2880   12.5023 C.ar    1  UNL1        0.0334
      3 C          63.3411   87.8881   13.0336 C.ar    1  UNL1       -0.0005
      4 C          64.1172   87.6093   14.2865 C.ar    1  UNL1       -0.0098
      5 C          64.8043   88.7304   15.0081 C.ar    1  UNL1       -0.0048
      6 C          64.7154   90.1303   14.4769 C.ar    1  UNL1        0.0109
      7 C          64.2061   86.2093   14.8178 C.3     1  UNL1        0.1227
      8 C          64.9690   85.1656   14.0572 C.2     1  UNL1       -0.0115
      9 C          65.0580   83.7656   14.5885 C.2     1  UNL1        0.0141
     10 C          64.3840   83.4094   15.8803 C.2     1  UNL1        0.0883
     11 N          63.6212   84.4532   16.6409 N.am    1  UNL1       -0.1774
     12 C          63.5322   85.8531   16.1096 C.2     1  UNL1        0.2533
     13 O          62.7693   86.8969   16.8703 O.2     1  UNL1       -0.2723
     14 C          65.4026   91.2515   15.1986 C.3     1  UNL1        0.0218
     15 C          64.1841   91.4499   16.0505 C.3     1  UNL1        0.0045
     16 C          66.6211   91.0530   14.3467 C.3     1  UNL1        0.0045
     17 C          66.0898   92.3726   15.9203 C.3     1  UNL1        0.0045
     18 C          64.7537   92.2472   11.5783 C.3     1  UNL1        0.2525
     19 O          63.8503   91.8091   12.6927 O.3     1  UNL1       -0.4717
     20 C          62.4759   89.5668   11.2493 C.2     1  UNL1        0.0030
     21 C          61.5678   88.5172   10.6805 C.2     1  UNL1        0.0001
     22 C          60.7916   88.7959    9.4276 C.ar    1  UNL1        0.0001
     23 C          60.2275   87.6600    8.6264 C.ar    1  UNL1        0.0013
     24 C          59.4513   87.9388    7.3735 C.ar    1  UNL1        0.0158
     25 C          59.2393   89.3533    6.9217 C.ar    1  UNL1        0.0644
     26 C          59.8033   90.4891    7.7227 C.ar    1  UNL1        0.0158
     27 C          60.5795   90.2104    8.9757 C.ar    1  UNL1        0.0013
     28 N          58.4631   89.6320    5.6687 N.pl3   1  UNL1       -0.2187
     29 H          57.9127   88.9238    5.2629 H       1  UNL1        0.1734
     30 S          58.5255   90.9898    5.0342 S.O2    1  UNL1        0.0558
     31 C          58.5880   92.3475    4.3996 C.3     1  UNL1        0.1996
     32 O          60.0023   90.8259    4.8289 O.2     1  UNL1       -0.1544
     33 O          57.0488   91.1537    5.2394 O.2     1  UNL1       -0.1544
@<TRIPOS>BOND
     1    18    19    1
     2    19     1    1
     3     1     2   ar
     4     2    20    1
     5    20    21    2
     6    21    22    1
     7    22    23   ar
     8    23    24   ar
     9    24    25   ar
    10    25    28    1
    11    28    30    1
    12    30    31    1
    13    30    32    2
    14    30    33    2
    15    25    26   ar
    16    26    27   ar
    17     2     3   ar
    18     3     4   ar
    19     4     7    1
    20     7     8    1
    21     8     9    2
    22     9    10    1
    23    10    11    2
    24    11    12    1
    25    12    13    2
    26     4     5   ar
    27     5     6   ar
    28     6    14    1
    29    14    15    1
    30    14    16    1
    31    14    17    1
    32     6     1   ar
    33    27    22   ar
    34    12     7    1
    35    28    29    1
@<TRIPOS>MOLECULE
*****
 33 35 0 0 0
SMALL
GASTEIGER

@<TRIPOS>ATOM
      1 C          63.2395   86.0513   12.7293 C.ar    1  UNL1        0.1346
      2 C          62.3713   85.5949   11.5945 C.ar    1  UNL1        0.0334
      3 C          62.2660   84.1340   11.2713 C.ar    1  UNL1       -0.0005
      4 C          63.0289   83.1294   12.0828 C.ar    1  UNL1       -0.0098
      5 C          63.8972   83.5858   13.2176 C.ar    1  UNL1       -0.0048
      6 C          64.0025   85.0467   13.5409 C.ar    1  UNL1        0.0109
      7 C          62.9237   81.6684   11.7596 C.3     1  UNL1        0.1227
      8 C          63.1179   81.1965   10.3491 C.2     1  UNL1       -0.0115
      9 C          63.0126   79.7355   10.0258 C.2     1  UNL1        0.0141
     10 C          62.7131   78.7465   11.1130 C.2     1  UNL1        0.0883
     11 N          62.5189   79.2184   12.5235 N.am    1  UNL1       -0.1774
     12 C          62.6241   80.6794   12.8468 C.2     1  UNL1        0.2533
     13 O          62.4299   81.1513   14.2573 O.2     1  UNL1       -0.2723
     14 C          64.8708   85.5031   14.6757 C.3     1  UNL1        0.0218
     15 C          63.7017   86.2220   15.2811 C.3     1  UNL1        0.0045
     16 C          66.0398   84.7842   14.0704 C.3     1  UNL1        0.0045
     17 C          65.7390   85.9595   15.8106 C.3     1  UNL1        0.0045
     18 C          63.0955   88.5364   11.9854 C.3     1  UNL1        0.2525
     19 O          63.3448   87.5123   13.0526 O.3     1  UNL1       -0.4717
     20 C          61.6083   86.5995   10.7829 C.2     1  UNL1        0.0030
     21 C          61.1517   86.2528    9.3968 C.2     1  UNL1        0.0001
     22 C          60.3887   87.2573    8.5852 C.ar    1  UNL1        0.0001
     23 C          59.4803   86.7973    7.4836 C.ar    1  UNL1        0.0013
     24 C          58.7173   87.8018    6.6720 C.ar    1  UNL1        0.0158
     25 C          58.8627   89.2663    6.9619 C.ar    1  UNL1        0.0644
     26 C          59.7710   89.7263    8.0633 C.ar    1  UNL1        0.0158
     27 C          60.5340   88.7218    8.8750 C.ar    1  UNL1        0.0013
     28 N          58.0997   90.2708    6.1503 N.pl3   1  UNL1       -0.2187
     29 H          57.1173   90.3041    6.2052 H       1  UNL1        0.1734
     30 S          58.8335   91.2248    5.2549 S.O2    1  UNL1        0.0558
     31 C          59.5673   92.1786    4.3596 C.3     1  UNL1        0.1996
     32 O          57.5916   92.0553    5.1220 O.2     1  UNL1       -0.1544
     33 O          60.0755   90.3942    5.3878 O.2     1  UNL1       -0.1544
@<TRIPOS>BOND
     1    18    19    1
     2    19     1    1
     3     1     2   ar
     4     2    20    1
     5    20    21    2
     6    21    22    1
     7    22    23   ar
     8    23    24   ar
     9    24    25   ar
    10    25    28    1
    11    28    30    1
    12    30    31    1
    13    30    32    2
    14    30    33    2
    15    25    26   ar
    16    26    27   ar
    17     2     3   ar
    18     3     4   ar
    19     4     7    1
    20     7     8    1
    21     8     9    2
    22     9    10    1
    23    10    11    2
    24    11    12    1
    25    12    13    2
    26     4     5   ar
    27     5     6   ar
    28     6    14    1
    29    14    15    1
    30    14    16    1
    31    14    17    1
    32     6     1   ar
    33    27    22   ar
    34    12     7    1
    35    28    29    1
