@<TRIPOS>MOLECULE
*****
 31 34 0 0 0
SMALL
GASTEIGER

@<TRIPOS>ATOM
      1 N          63.8086   89.1988   13.5222 N.ar    1  UNL1       -0.3288
      2 C          63.8329   90.5731   12.9214 C.ar    1  UNL1        0.0335
      3 C          64.2476   91.8337   13.6205 C.3     1  UNL1        0.0497
      4 C          63.3695   90.4653   11.4989 C.ar    1  UNL1       -0.0086
      5 C          63.2396   91.5993   10.5256 C.3     1  UNL1        0.0322
      6 C          63.0589   89.0245   11.2204 C.ar    1  UNL1        0.0187
      7 C          62.5640   88.3241    9.9898 C.ar    1  UNL1        0.0388
      8 C          62.3405   86.8410   10.0096 C.ar    1  UNL1        0.1515
      9 N          62.6119   86.0583   11.2601 N.ar    1  UNL1       -0.2119
     10 C          63.1068   86.7586   12.4907 C.ar    1  UNL1        0.1462
     11 C          63.3303   88.2417   12.4709 C.ar    1  UNL1        0.0913
     12 N          61.8456   86.1406    8.7789 N.ar    1  UNL1       -0.2577
     13 C          62.7780   85.2783    7.9806 C.ar    1  UNL1        0.0844
     14 C          62.2831   84.5779    6.7500 C.ar    1  UNL1        0.0193
     15 C          60.8559   84.7397    6.3176 C.ar    1  UNL1        0.0064
     16 C          59.9236   85.6019    7.1159 C.ar    1  UNL1        0.0612
     17 C          60.4185   86.3024    8.3465 C.ar    1  UNL1        0.2659
     18 O          59.4861   87.1646    9.1448 O.2     1  UNL1       -0.2666
     19 C          63.3101   89.2417   16.0717 C.3     1  UNL1        0.0265
     20 C          64.1949   88.8439   14.9275 C.3     1  UNL1        0.1059
     21 N          63.3781   85.9759   13.7412 N.pl3   1  UNL1       -0.3133
     22 H          63.0462   86.3030   14.6084 H       1  UNL1        0.1485
     23 C          64.1552   84.6949   13.6703 C.3     1  UNL1        0.1148
     24 C          63.4361   83.3902   13.4954 C.ar    1  UNL1       -0.0105
     25 C          62.5145   82.8919   14.5689 C.ar    1  UNL1       -0.0245
     26 C          62.3120   83.6983   15.8173 C.3     1  UNL1        0.0307
     27 C          61.7954   81.5872   14.3940 C.ar    1  UNL1       -0.0045
     28 C          61.9980   80.7807   13.1455 C.ar    1  UNL1       -0.0007
     29 C          62.9196   81.2790   12.0720 C.ar    1  UNL1       -0.0045
     30 C          63.6386   82.5837   12.2470 C.ar    1  UNL1       -0.0245
     31 C          64.5602   83.0820   11.1735 C.3     1  UNL1        0.0307
@<TRIPOS>BOND
     1    19    20    1
     2    20     1    1
     3     1     2   ar
     4     2     3    1
     5     2     4   ar
     6     4     5    1
     7     4     6   ar
     8     6     7   ar
     9     7     8   ar
    10     8    12    1
    11    12    13   ar
    12    13    14   ar
    13    14    15   ar
    14    15    16   ar
    15    16    17   ar
    16    17    18    2
    17     8     9   ar
    18     9    10   ar
    19    10    21    1
    20    21    23    1
    21    23    24    1
    22    24    25   ar
    23    25    26    1
    24    25    27   ar
    25    27    28   ar
    26    28    29   ar
    27    29    30   ar
    28    30    31    1
    29    10    11   ar
    30    11     1   ar
    31    11     6   ar
    32    17    12   ar
    33    30    24   ar
    34    21    22    1
@<TRIPOS>MOLECULE
*****
 31 34 0 0 0
SMALL
GASTEIGER

@<TRIPOS>ATOM
      1 N          61.6411   89.0930   10.4021 N.ar    1  UNL1       -0.3288
      2 C          60.7491   88.7810    9.2372 C.ar    1  UNL1        0.0335
      3 C          60.1279   89.7825    8.3093 C.3     1  UNL1        0.0497
      4 C          60.5873   87.2916    9.1632 C.ar    1  UNL1       -0.0086
      5 C          59.7760   86.5422    8.1482 C.3     1  UNL1        0.0322
      6 C          61.3794   86.6831   10.2823 C.ar    1  UNL1        0.0187
      7 C          61.5917   85.2591   10.7030 C.ar    1  UNL1        0.0388
      8 C          62.4553   84.9484   11.8895 C.ar    1  UNL1        0.1515
      9 N          63.1066   86.0618   12.6551 N.ar    1  UNL1       -0.2119
     10 C          62.8942   87.4858   12.2344 C.ar    1  UNL1        0.1462
     11 C          62.0306   87.7964   11.0480 C.ar    1  UNL1        0.0913
     12 N          62.6676   83.5243   12.3102 N.ar    1  UNL1       -0.2577
     13 C          62.2055   83.0646   13.6612 C.ar    1  UNL1        0.0844
     14 C          62.4179   81.6407   14.0820 C.ar    1  UNL1        0.0193
     15 C          63.0923   80.6763   13.1519 C.ar    1  UNL1        0.0064
     16 C          63.5544   81.1360   11.8009 C.ar    1  UNL1        0.0612
     17 C          63.3421   82.5601   11.3801 C.ar    1  UNL1        0.2659
     18 O          63.8042   83.0198   10.0291 O.2     1  UNL1       -0.2666
     19 C          63.1709   91.1736   10.1171 C.3     1  UNL1        0.0265
     20 C          62.0685   90.4613   10.8436 C.3     1  UNL1        0.1059
     21 N          63.5455   88.5991   13.0001 N.pl3   1  UNL1       -0.3133
     22 H          63.3624   89.5357   12.7583 H       1  UNL1        0.1485
     23 C          64.4757   88.2855   14.1343 C.3     1  UNL1        0.1148
     24 C          63.9415   87.6726   15.3948 C.ar    1  UNL1       -0.0105
     25 C          64.1366   86.2087   15.6582 C.ar    1  UNL1       -0.0245
     26 C          64.8658   85.3580   14.6611 C.3     1  UNL1        0.0307
     27 C          63.6024   85.5958   16.9187 C.ar    1  UNL1       -0.0045
     28 C          62.8731   86.4467   17.9159 C.ar    1  UNL1       -0.0007
     29 C          62.6780   87.9104   17.6525 C.ar    1  UNL1       -0.0045
     30 C          63.2122   88.5233   16.3919 C.ar    1  UNL1       -0.0245
     31 C          63.0171   89.9871   16.1285 C.3     1  UNL1        0.0307
@<TRIPOS>BOND
     1    19    20    1
     2    20     1    1
     3     1     2   ar
     4     2     3    1
     5     2     4   ar
     6     4     5    1
     7     4     6   ar
     8     6     7   ar
     9     7     8   ar
    10     8    12    1
    11    12    13   ar
    12    13    14   ar
    13    14    15   ar
    14    15    16   ar
    15    16    17   ar
    16    17    18    2
    17     8     9   ar
    18     9    10   ar
    19    10    21    1
    20    21    23    1
    21    23    24    1
    22    24    25   ar
    23    25    26    1
    24    25    27   ar
    25    27    28   ar
    26    28    29   ar
    27    29    30   ar
    28    30    31    1
    29    10    11   ar
    30    11     1   ar
    31    11     6   ar
    32    17    12   ar
    33    30    24   ar
    34    21    22    1
@<TRIPOS>MOLECULE
*****
 31 34 0 0 0
SMALL
GASTEIGER

@<TRIPOS>ATOM
      1 N          61.5937   89.1267   10.3330 N.ar    1  UNL1       -0.3288
      2 C          60.7107   88.7953    9.1666 C.ar    1  UNL1        0.0335
      3 C          60.0920   89.7816    8.2208 C.3     1  UNL1        0.0497
      4 C          60.5550   87.3044    9.1120 C.ar    1  UNL1       -0.0086
      5 C          59.7533   86.5380    8.1021 C.3     1  UNL1        0.0322
      6 C          61.3417   86.7144   10.2447 C.ar    1  UNL1        0.0187
      7 C          61.5565   85.2972   10.6865 C.ar    1  UNL1        0.0388
      8 C          62.4132   85.0062   11.8828 C.ar    1  UNL1        0.1515
      9 N          63.0552   86.1324   12.6374 N.ar    1  UNL1       -0.2119
     10 C          62.8404   87.5497   12.1956 C.ar    1  UNL1        0.1462
     11 C          61.9837   87.8407   10.9993 C.ar    1  UNL1        0.0913
     12 N          62.6281   83.5888   12.3246 N.ar    1  UNL1       -0.2577
     13 C          63.1912   82.5817   11.3662 C.ar    1  UNL1        0.0844
     14 C          63.4060   81.1644   11.8079 C.ar    1  UNL1        0.0193
     15 C          63.0577   80.7542   13.2081 C.ar    1  UNL1        0.0064
     16 C          62.4945   81.7614   14.1665 C.ar    1  UNL1        0.0612
     17 C          62.2797   83.1787   13.7247 C.ar    1  UNL1        0.2659
     18 O          61.7166   84.1858   14.6831 O.2     1  UNL1       -0.2666
     19 C          63.2421   91.1282   10.1682 C.3     1  UNL1        0.0265
     20 C          62.0131   90.5026   10.7584 C.3     1  UNL1        0.1059
     21 N          63.4824   88.6759   12.9502 N.pl3   1  UNL1       -0.3133
     22 H          63.2702   89.6086   12.7171 H       1  UNL1        0.1485
     23 C          64.4476   88.3812   14.0599 C.3     1  UNL1        0.1148
     24 C          63.9585   87.7575   15.3334 C.ar    1  UNL1       -0.0105
     25 C          63.2094   88.5858   16.3348 C.ar    1  UNL1       -0.0245
     26 C          62.9493   90.0378   16.0627 C.3     1  UNL1        0.0307
     27 C          62.7203   87.9621   17.6083 C.ar    1  UNL1       -0.0045
     28 C          62.9804   86.5100   17.8804 C.ar    1  UNL1       -0.0007
     29 C          63.7295   85.6818   16.8791 C.ar    1  UNL1       -0.0045
     30 C          64.2186   86.3055   15.6056 C.ar    1  UNL1       -0.0245
     31 C          64.9677   85.4772   14.6042 C.3     1  UNL1        0.0307
@<TRIPOS>BOND
     1    19    20    1
     2    20     1    1
     3     1     2   ar
     4     2     3    1
     5     2     4   ar
     6     4     5    1
     7     4     6   ar
     8     6     7   ar
     9     7     8   ar
    10     8    12    1
    11    12    13   ar
    12    13    14   ar
    13    14    15   ar
    14    15    16   ar
    15    16    17   ar
    16    17    18    2
    17     8     9   ar
    18     9    10   ar
    19    10    21    1
    20    21    23    1
    21    23    24    1
    22    24    25   ar
    23    25    26    1
    24    25    27   ar
    25    27    28   ar
    26    28    29   ar
    27    29    30   ar
    28    30    31    1
    29    10    11   ar
    30    11     1   ar
    31    11     6   ar
    32    17    12   ar
    33    30    24   ar
    34    21    22    1
@<TRIPOS>MOLECULE
*****
 31 34 0 0 0
SMALL
GASTEIGER

@<TRIPOS>ATOM
      1 N          63.7958   89.1062   13.6074 N.ar    1  UNL1       -0.3288
      2 C          63.7986   90.4947   13.0400 C.ar    1  UNL1        0.0335
      3 C          64.1988   91.7438   13.7677 C.3     1  UNL1        0.0497
      4 C          63.3308   90.4148   11.6170 C.ar    1  UNL1       -0.0086
      5 C          63.1812   91.5699   10.6719 C.3     1  UNL1        0.0322
      6 C          63.0390   88.9769   11.3050 C.ar    1  UNL1        0.0187
      7 C          62.5487   88.2996   10.0597 C.ar    1  UNL1        0.0388
      8 C          62.3457   86.8135   10.0446 C.ar    1  UNL1        0.1515
      9 N          62.6331   86.0047   11.2748 N.ar    1  UNL1       -0.2119
     10 C          63.1234   86.6820   12.5201 C.ar    1  UNL1        0.1462
     11 C          63.3263   88.1681   12.5352 C.ar    1  UNL1        0.0913
     12 N          61.8554   86.1360    8.7993 N.ar    1  UNL1       -0.2577
     13 C          62.7907   85.2886    7.9887 C.ar    1  UNL1        0.0844
     14 C          62.3004   84.6112    6.7434 C.ar    1  UNL1        0.0193
     15 C          60.8749   84.7812    6.3087 C.ar    1  UNL1        0.0064
     16 C          59.9396   85.6287    7.1193 C.ar    1  UNL1        0.0612
     17 C          60.4299   86.3061    8.3647 C.ar    1  UNL1        0.2659
     18 O          59.4946   87.1535    9.1753 O.2     1  UNL1       -0.2666
     19 C          63.2958   89.0595   16.1566 C.3     1  UNL1        0.0265
     20 C          64.1927   88.7230   15.0023 C.3     1  UNL1        0.1059
     21 N          63.4107   85.8733   13.7503 N.pl3   1  UNL1       -0.3133
     22 H          63.0941   86.1844   14.6290 H       1  UNL1        0.1485
     23 C          64.1805   84.5905   13.6416 C.3     1  UNL1        0.1148
     24 C          63.4515   83.2903   13.4735 C.ar    1  UNL1       -0.0105
     25 C          63.6375   82.4824   12.2234 C.ar    1  UNL1       -0.0245
     26 C          64.5523   82.9746   11.1414 C.3     1  UNL1        0.0307
     27 C          62.9085   81.1822   12.0553 C.ar    1  UNL1       -0.0045
     28 C          61.9936   80.6900   13.1374 C.ar    1  UNL1       -0.0007
     29 C          61.8078   81.4979   14.3875 C.ar    1  UNL1       -0.0045
     30 C          62.5367   82.7981   14.5555 C.ar    1  UNL1       -0.0245
     31 C          62.3508   83.6060   15.8056 C.3     1  UNL1        0.0307
@<TRIPOS>BOND
     1    19    20    1
     2    20     1    1
     3     1     2   ar
     4     2     3    1
     5     2     4   ar
     6     4     5    1
     7     4     6   ar
     8     6     7   ar
     9     7     8   ar
    10     8    12    1
    11    12    13   ar
    12    13    14   ar
    13    14    15   ar
    14    15    16   ar
    15    16    17   ar
    16    17    18    2
    17     8     9   ar
    18     9    10   ar
    19    10    21    1
    20    21    23    1
    21    23    24    1
    22    24    25   ar
    23    25    26    1
    24    25    27   ar
    25    27    28   ar
    26    28    29   ar
    27    29    30   ar
    28    30    31    1
    29    10    11   ar
    30    11     1   ar
    31    11     6   ar
    32    17    12   ar
    33    30    24   ar
    34    21    22    1
@<TRIPOS>MOLECULE
*****
 31 34 0 0 0
SMALL
GASTEIGER

@<TRIPOS>ATOM
      1 N          61.4093   89.1985   10.0182 N.ar    1  UNL1       -0.3288
      2 C          60.5948   88.6808    8.8699 C.ar    1  UNL1        0.0335
      3 C          59.9109   89.5146    7.8273 C.3     1  UNL1        0.0497
      4 C          60.5842   87.1829    8.9473 C.ar    1  UNL1       -0.0086
      5 C          59.8880   86.2557    7.9957 C.3     1  UNL1        0.0322
      6 C          61.3922   86.7748   10.1435 C.ar    1  UNL1        0.0187
      7 C          61.7295   85.4298   10.7155 C.ar    1  UNL1        0.0388
      8 C          62.5766   85.3306   11.9493 C.ar    1  UNL1        0.1515
      9 N          63.0865   86.5763   12.6111 N.ar    1  UNL1       -0.2119
     10 C          62.7493   87.9213   12.0391 C.ar    1  UNL1        0.1462
     11 C          61.9021   88.0205   10.8053 C.ar    1  UNL1        0.0913
     12 N          62.9139   83.9855   12.5213 N.ar    1  UNL1       -0.2577
     13 C          63.5763   82.9498   11.6620 C.ar    1  UNL1        0.0844
     14 C          63.9137   81.6048   12.2340 C.ar    1  UNL1        0.0193
     15 C          63.5886   81.2955   13.6654 C.ar    1  UNL1        0.0064
     16 C          62.9262   82.3313   14.5247 C.ar    1  UNL1        0.0612
     17 C          62.5888   83.6763   13.9526 C.ar    1  UNL1        0.2659
     18 O          61.9264   84.7121   14.8119 O.2     1  UNL1       -0.2666
     19 C          63.0439   91.2173   10.0691 C.3     1  UNL1        0.0265
     20 C          61.6829   90.6410   10.3255 C.3     1  UNL1        0.1059
     21 N          63.2592   89.1671   12.7010 N.pl3   1  UNL1       -0.3133
     22 H          62.9354   90.0489   12.4062 H       1  UNL1        0.1485
     23 C          64.2624   89.0694   13.8118 C.3     1  UNL1        0.1148
     24 C          64.4737   90.2318   14.7360 C.ar    1  UNL1       -0.0105
     25 C          65.3755   91.3593   14.3289 C.ar    1  UNL1       -0.0245
     26 C          66.0659   91.3243   12.9978 C.3     1  UNL1        0.0307
     27 C          65.5868   92.5218   15.2531 C.ar    1  UNL1       -0.0045
     28 C          64.8963   92.5567   16.5843 C.ar    1  UNL1       -0.0007
     29 C          63.9946   91.4292   16.9913 C.ar    1  UNL1       -0.0045
     30 C          63.7833   90.2668   16.0672 C.ar    1  UNL1       -0.0245
     31 C          62.8815   89.1394   16.4742 C.3     1  UNL1        0.0307
@<TRIPOS>BOND
     1    19    20    1
     2    20     1    1
     3     1     2   ar
     4     2     3    1
     5     2     4   ar
     6     4     5    1
     7     4     6   ar
     8     6     7   ar
     9     7     8   ar
    10     8    12    1
    11    12    13   ar
    12    13    14   ar
    13    14    15   ar
    14    15    16   ar
    15    16    17   ar
    16    17    18    2
    17     8     9   ar
    18     9    10   ar
    19    10    21    1
    20    21    23    1
    21    23    24    1
    22    24    25   ar
    23    25    26    1
    24    25    27   ar
    25    27    28   ar
    26    28    29   ar
    27    29    30   ar
    28    30    31    1
    29    10    11   ar
    30    11     1   ar
    31    11     6   ar
    32    17    12   ar
    33    30    24   ar
    34    21    22    1
@<TRIPOS>MOLECULE
*****
 31 34 0 0 0
SMALL
GASTEIGER

@<TRIPOS>ATOM
      1 N          60.8038   88.9705    9.7021 N.ar    1  UNL1       -0.3288
      2 C          60.1714   88.3176    8.5089 C.ar    1  UNL1        0.0335
      3 C          59.3969   89.0145    7.4297 C.3     1  UNL1        0.0497
      4 C          60.4495   86.8456    8.5843 C.ar    1  UNL1       -0.0086
      5 C          60.0018   85.8119    7.5938 C.3     1  UNL1        0.0322
      6 C          61.2537   86.5887    9.8241 C.ar    1  UNL1        0.0187
      7 C          61.8150   85.3285   10.4132 C.ar    1  UNL1        0.0388
      8 C          62.5952   85.3817   11.6932 C.ar    1  UNL1        0.1515
      9 N          62.8142   86.6950   12.3840 N.ar    1  UNL1       -0.2119
     10 C          62.2530   87.9551   11.7949 C.ar    1  UNL1        0.1462
     11 C          61.4727   87.9019   10.5150 C.ar    1  UNL1        0.0913
     12 N          63.1565   84.1216   12.2823 N.ar    1  UNL1       -0.2577
     13 C          63.9964   83.2087   11.4391 C.ar    1  UNL1        0.0844
     14 C          64.5577   81.9486   12.0282 C.ar    1  UNL1        0.0193
     15 C          64.2790   81.6013   13.4606 C.ar    1  UNL1        0.0064
     16 C          63.4390   82.5142   14.3039 C.ar    1  UNL1        0.0612
     17 C          62.8778   83.7743   13.7147 C.ar    1  UNL1        0.2659
     18 O          62.0378   84.6872   14.5580 O.2     1  UNL1       -0.2666
     19 C          59.8089   90.9563   11.0501 C.3     1  UNL1        0.0265
     20 C          60.7728   90.4349   10.0257 C.3     1  UNL1        0.1059
     21 N          62.4720   89.2684   12.4858 N.pl3   1  UNL1       -0.3133
     22 H          61.9992   89.4674   13.3261 H       1  UNL1        0.1485
     23 C          63.4113   90.2785   11.8964 C.3     1  UNL1        0.1148
     24 C          64.3406   91.0481   12.7876 C.ar    1  UNL1       -0.0105
     25 C          64.4715   90.6759   14.2348 C.ar    1  UNL1       -0.0245
     26 C          63.6732   89.5342   14.7908 C.3     1  UNL1        0.0307
     27 C          65.4008   91.4455   15.1260 C.ar    1  UNL1       -0.0045
     28 C          66.1991   92.5873   14.5699 C.ar    1  UNL1       -0.0007
     29 C          66.0681   92.9594   13.1227 C.ar    1  UNL1       -0.0045
     30 C          65.1389   92.1898   12.2316 C.ar    1  UNL1       -0.0245
     31 C          65.0079   92.5619   10.7844 C.3     1  UNL1        0.0307
@<TRIPOS>BOND
     1    19    20    1
     2    20     1    1
     3     1     2   ar
     4     2     3    1
     5     2     4   ar
     6     4     5    1
     7     4     6   ar
     8     6     7   ar
     9     7     8   ar
    10     8    12    1
    11    12    13   ar
    12    13    14   ar
    13    14    15   ar
    14    15    16   ar
    15    16    17   ar
    16    17    18    2
    17     8     9   ar
    18     9    10   ar
    19    10    21    1
    20    21    23    1
    21    23    24    1
    22    24    25   ar
    23    25    26    1
    24    25    27   ar
    25    27    28   ar
    26    28    29   ar
    27    29    30   ar
    28    30    31    1
    29    10    11   ar
    30    11     1   ar
    31    11     6   ar
    32    17    12   ar
    33    30    24   ar
    34    21    22    1
@<TRIPOS>MOLECULE
*****
 31 34 0 0 0
SMALL
GASTEIGER

@<TRIPOS>ATOM
      1 N          60.7984   88.9760    9.6903 N.ar    1  UNL1       -0.3288
      2 C          60.1705   88.3257    8.4933 C.ar    1  UNL1        0.0335
      3 C          59.3971   89.0244    7.4146 C.3     1  UNL1        0.0497
      4 C          60.4519   86.8540    8.5644 C.ar    1  UNL1       -0.0086
      5 C          60.0092   85.8227    7.5692 C.3     1  UNL1        0.0322
      6 C          61.2536   86.5948    9.8054 C.ar    1  UNL1        0.0187
      7 C          61.8163   85.3340   10.3916 C.ar    1  UNL1        0.0388
      8 C          62.5932   85.3846   11.6737 C.ar    1  UNL1        0.1515
      9 N          62.8074   86.6960   12.3696 N.ar    1  UNL1       -0.2119
     10 C          62.2447   87.9568   11.7834 C.ar    1  UNL1        0.1462
     11 C          61.4678   87.9062   10.5013 C.ar    1  UNL1        0.0913
     12 N          63.1559   84.1238   12.2600 N.ar    1  UNL1       -0.2577
     13 C          63.9948   83.2125   11.4139 C.ar    1  UNL1        0.0844
     14 C          64.5576   81.9517   12.0002 C.ar    1  UNL1        0.0193
     15 C          64.2814   81.6021   13.4325 C.ar    1  UNL1        0.0064
     16 C          63.4425   82.5134   14.2786 C.ar    1  UNL1        0.0612
     17 C          62.8798   83.7742   13.6923 C.ar    1  UNL1        0.2659
     18 O          62.0409   84.6855   14.5384 O.2     1  UNL1       -0.2666
     19 C          59.7966   90.9546   11.0437 C.3     1  UNL1        0.0265
     20 C          60.7631   90.4391   10.0189 C.3     1  UNL1        0.1059
     21 N          62.4589   89.2683   12.4793 N.pl3   1  UNL1       -0.3133
     22 H          61.9902   89.4598   13.3236 H       1  UNL1        0.1485
     23 C          63.3871   90.2879   11.8887 C.3     1  UNL1        0.1148
     24 C          64.3304   91.0458   12.7751 C.ar    1  UNL1       -0.0105
     25 C          65.1378   92.1795   12.2156 C.ar    1  UNL1       -0.0245
     26 C          65.0018   92.5552   10.7698 C.3     1  UNL1        0.0307
     27 C          66.0811   92.9375   13.1020 C.ar    1  UNL1       -0.0045
     28 C          66.2170   92.5618   14.5478 C.ar    1  UNL1       -0.0007
     29 C          65.4097   91.4281   15.1073 C.ar    1  UNL1       -0.0045
     30 C          64.4663   90.6702   14.2209 C.ar    1  UNL1       -0.0245
     31 C          63.6590   89.5365   14.7803 C.3     1  UNL1        0.0307
@<TRIPOS>BOND
     1    19    20    1
     2    20     1    1
     3     1     2   ar
     4     2     3    1
     5     2     4   ar
     6     4     5    1
     7     4     6   ar
     8     6     7   ar
     9     7     8   ar
    10     8    12    1
    11    12    13   ar
    12    13    14   ar
    13    14    15   ar
    14    15    16   ar
    15    16    17   ar
    16    17    18    2
    17     8     9   ar
    18     9    10   ar
    19    10    21    1
    20    21    23    1
    21    23    24    1
    22    24    25   ar
    23    25    26    1
    24    25    27   ar
    25    27    28   ar
    26    28    29   ar
    27    29    30   ar
    28    30    31    1
    29    10    11   ar
    30    11     1   ar
    31    11     6   ar
    32    17    12   ar
    33    30    24   ar
    34    21    22    1
@<TRIPOS>MOLECULE
*****
 31 34 0 0 0
SMALL
GASTEIGER

@<TRIPOS>ATOM
      1 N          62.0457   87.5907   11.2268 N.ar    1  UNL1       -0.3288
      2 C          61.7397   88.5854   10.1466 C.ar    1  UNL1        0.0335
      3 C          60.8712   88.3454    8.9473 C.3     1  UNL1        0.0497
      4 C          62.4545   89.8622   10.4762 C.ar    1  UNL1       -0.0086
      5 C          62.4264   91.1233    9.6645 C.3     1  UNL1        0.0322
      6 C          63.2023   89.6567   11.7602 C.ar    1  UNL1        0.0187
      7 C          64.0807   90.5665   12.5668 C.ar    1  UNL1        0.0388
      8 C          64.7064   90.0724   13.8373 C.ar    1  UNL1        0.1515
      9 N          64.4538   88.6684   14.3012 N.ar    1  UNL1       -0.2119
     10 C          63.5754   87.7586   13.4945 C.ar    1  UNL1        0.1462
     11 C          62.9497   88.2528   12.2240 C.ar    1  UNL1        0.0913
     12 N          65.5848   90.9822   14.6440 N.ar    1  UNL1       -0.2577
     13 C          67.0400   91.1144   14.3050 C.ar    1  UNL1        0.0844
     14 C          67.9184   92.0242   15.1116 C.ar    1  UNL1        0.0193
     15 C          67.3416   92.8017   16.2574 C.ar    1  UNL1        0.0064
     16 C          65.8864   92.6695   16.5965 C.ar    1  UNL1        0.0612
     17 C          65.0080   91.7597   15.7898 C.ar    1  UNL1        0.2659
     18 O          63.5528   91.6274   16.1289 O.2     1  UNL1       -0.2666
     19 C          61.8011   85.2312   10.1670 C.3     1  UNL1        0.0265
     20 C          61.5372   86.1813   11.2974 C.3     1  UNL1        0.1059
     21 N          63.3228   86.3547   13.9584 N.pl3   1  UNL1       -0.3133
     22 H          62.6468   86.1797   14.6524 H       1  UNL1        0.1485
     23 C          64.1001   85.2174   13.3649 C.3     1  UNL1        0.1148
     24 C          63.5012   83.8430   13.3187 C.ar    1  UNL1       -0.0105
     25 C          62.6472   83.3585   14.4528 C.ar    1  UNL1       -0.0245
     26 C          62.3922   84.2485   15.6329 C.3     1  UNL1        0.0307
     27 C          62.0482   81.9840   14.4066 C.ar    1  UNL1       -0.0045
     28 C          62.3033   81.0940   13.2263 C.ar    1  UNL1       -0.0007
     29 C          63.1572   81.5785   12.0923 C.ar    1  UNL1       -0.0045
     30 C          63.7562   82.9530   12.1385 C.ar    1  UNL1       -0.0245
     31 C          64.6102   83.4375   11.0045 C.3     1  UNL1        0.0307
@<TRIPOS>BOND
     1    19    20    1
     2    20     1    1
     3     1     2   ar
     4     2     3    1
     5     2     4   ar
     6     4     5    1
     7     4     6   ar
     8     6     7   ar
     9     7     8   ar
    10     8    12    1
    11    12    13   ar
    12    13    14   ar
    13    14    15   ar
    14    15    16   ar
    15    16    17   ar
    16    17    18    2
    17     8     9   ar
    18     9    10   ar
    19    10    21    1
    20    21    23    1
    21    23    24    1
    22    24    25   ar
    23    25    26    1
    24    25    27   ar
    25    27    28   ar
    26    28    29   ar
    27    29    30   ar
    28    30    31    1
    29    10    11   ar
    30    11     1   ar
    31    11     6   ar
    32    17    12   ar
    33    30    24   ar
    34    21    22    1
@<TRIPOS>MOLECULE
*****
 31 34 0 0 0
SMALL
GASTEIGER

@<TRIPOS>ATOM
      1 N          63.9312   85.5595   13.9328 N.ar    1  UNL1       -0.3288
      2 C          63.7553   84.0777   13.7796 C.ar    1  UNL1        0.0335
      3 C          64.3363   83.0237   14.6749 C.3     1  UNL1        0.0497
      4 C          62.8965   83.8351   12.5740 C.ar    1  UNL1       -0.0086
      5 C          62.4678   82.4959   12.0519 C.3     1  UNL1        0.0322
      6 C          62.5415   85.1669   11.9821 C.ar    1  UNL1        0.0187
      7 C          61.7187   85.5469   10.7869 C.ar    1  UNL1        0.0388
      8 C          61.5353   86.9926   10.4316 C.ar    1  UNL1        0.1515
      9 N          62.1748   88.0583   11.2714 N.ar    1  UNL1       -0.2119
     10 C          62.9977   87.6783   12.4666 C.ar    1  UNL1        0.1462
     11 C          63.1810   86.2327   12.8219 C.ar    1  UNL1        0.0913
     12 N          60.7124   87.3726    9.2364 N.ar    1  UNL1       -0.2577
     13 C          60.3088   86.3262    8.2403 C.ar    1  UNL1        0.0844
     14 C          59.4859   86.7062    7.0451 C.ar    1  UNL1        0.0193
     15 C          59.0666   88.1326    6.8460 C.ar    1  UNL1        0.0064
     16 C          59.4702   89.1790    7.8420 C.ar    1  UNL1        0.0612
     17 C          60.2931   88.7990    9.0373 C.ar    1  UNL1        0.2659
     18 O          60.6967   89.8454   10.0334 O.2     1  UNL1       -0.2666
     19 C          64.0175   86.8067   16.2104 C.3     1  UNL1        0.0265
     20 C          64.7189   86.2473   15.0082 C.3     1  UNL1        0.1059
     21 N          63.6372   88.7441   13.3064 N.pl3   1  UNL1       -0.3133
     22 H          64.3087   88.5002   13.9837 H       1  UNL1        0.1485
     23 C          63.2534   90.1813   13.1143 C.3     1  UNL1        0.1148
     24 C          64.2927   91.1889   12.7208 C.ar    1  UNL1       -0.0105
     25 C          64.3383   91.7093   11.3147 C.ar    1  UNL1       -0.0245
     26 C          63.3447   91.2222   10.3021 C.3     1  UNL1        0.0307
     27 C          65.3775   92.7169   10.9213 C.ar    1  UNL1       -0.0045
     28 C          66.3711   93.2041   11.9340 C.ar    1  UNL1       -0.0007
     29 C          66.3255   92.6837   13.3400 C.ar    1  UNL1       -0.0045
     30 C          65.2862   91.6761   13.7335 C.ar    1  UNL1       -0.0245
     31 C          65.2406   91.1556   15.1395 C.3     1  UNL1        0.0307
@<TRIPOS>BOND
     1    19    20    1
     2    20     1    1
     3     1     2   ar
     4     2     3    1
     5     2     4   ar
     6     4     5    1
     7     4     6   ar
     8     6     7   ar
     9     7     8   ar
    10     8    12    1
    11    12    13   ar
    12    13    14   ar
    13    14    15   ar
    14    15    16   ar
    15    16    17   ar
    16    17    18    2
    17     8     9   ar
    18     9    10   ar
    19    10    21    1
    20    21    23    1
    21    23    24    1
    22    24    25   ar
    23    25    26    1
    24    25    27   ar
    25    27    28   ar
    26    28    29   ar
    27    29    30   ar
    28    30    31    1
    29    10    11   ar
    30    11     1   ar
    31    11     6   ar
    32    17    12   ar
    33    30    24   ar
    34    21    22    1
