@<TRIPOS>MOLECULE
*****
 12 14 0 0 0
SMALL
GASTEIGER

@<TRIPOS>ATOM
      1 O          60.5202   87.2507   11.4881 O.3     1  UNL1       -0.3845
      2 C          61.4576   86.3467   10.7438 C.3     1  UNL1        0.1104
      3 C          62.1336   85.2145   11.4588 C.3     1  UNL1        0.0269
      4 C          62.8096   84.0823   12.1738 C.3     1  UNL1        0.0024
      5 C          63.7470   83.1783   11.4295 C.3     1  UNL1        0.0002
      6 C          64.0084   83.4064    9.9702 C.3     1  UNL1        0.0000
      7 C          63.3324   84.5386    9.2552 C.3     1  UNL1        0.0002
      8 C          62.3950   85.4426    9.9995 C.3     1  UNL1        0.0024
      9 C          62.6564   85.6707    8.5402 C.3     1  UNL1        0.0024
     10 C          61.7190   86.5748    9.2845 C.3     1  UNL1        0.0269
     11 C          62.8155   84.3539   11.4464 C.3     1  UNL1        0.0024
     12 H          60.4641   86.9667   12.4139 H       1  UNL1        0.2103
@<TRIPOS>BOND
     1     1     2    1
     2     2     3    1
     3     3     4    1
     4     4     5    1
     5     5     6    1
     6     6     7    1
     7     7     8    1
     8     7     9    1
     9     9    10    1
    10    10    11    1
    11    10     2    1
    12     8     3    1
    13    11     5    1
    14     1    12    1
@<TRIPOS>MOLECULE
*****
 12 14 0 0 0
SMALL
GASTEIGER

@<TRIPOS>ATOM
      1 O          62.3746   84.6425   13.8197 O.3     1  UNL1       -0.3845
      2 C          62.7922   84.4519   12.3917 C.3     1  UNL1        0.1104
      3 C          62.2969   85.3925   11.3334 C.3     1  UNL1        0.0269
      4 C          61.8016   86.3331   10.2752 C.3     1  UNL1        0.0024
      5 C          62.2192   86.1425    8.8472 C.3     1  UNL1        0.0002
      6 C          63.1322   85.0112    8.4774 C.3     1  UNL1        0.0000
      7 C          63.6275   84.0706    9.5356 C.3     1  UNL1        0.0002
      8 C          63.2099   84.2613   10.9636 C.3     1  UNL1        0.0024
      9 C          64.1228   83.1300   10.5938 C.3     1  UNL1        0.0024
     10 C          63.7052   83.3206   12.0219 C.3     1  UNL1        0.0269
     11 C          62.2641   85.7095   10.2826 C.3     1  UNL1        0.0024
     12 H          61.7889   85.4129   13.8851 H       1  UNL1        0.2103
@<TRIPOS>BOND
     1     1     2    1
     2     2     3    1
     3     3     4    1
     4     4     5    1
     5     5     6    1
     6     6     7    1
     7     7     8    1
     8     7     9    1
     9     9    10    1
    10    10    11    1
    11    10     2    1
    12     8     3    1
    13    11     5    1
    14     1    12    1
@<TRIPOS>MOLECULE
*****
 12 14 0 0 0
SMALL
GASTEIGER

@<TRIPOS>ATOM
      1 O          64.8452   82.4014   10.1741 O.3     1  UNL1       -0.3845
      2 C          63.8800   83.4965   10.5190 C.3     1  UNL1        0.1104
      3 C          63.3918   84.4299    9.4510 C.3     1  UNL1        0.0269
      4 C          62.9037   85.3633    8.3831 C.3     1  UNL1        0.0024
      5 C          61.9385   86.4584    8.7280 C.3     1  UNL1        0.0002
      6 C          61.4615   86.6202   10.1409 C.3     1  UNL1        0.0000
      7 C          61.9496   85.6869   11.2089 C.3     1  UNL1        0.0002
      8 C          62.9148   84.5918   10.8639 C.3     1  UNL1        0.0024
      9 C          62.4378   84.7536   12.2768 C.3     1  UNL1        0.0024
     10 C          63.4030   83.6584   11.9319 C.3     1  UNL1        0.0269
     11 C          62.7776   85.2872    9.1455 C.3     1  UNL1        0.0024
     12 H          65.0493   82.4369    9.2265 H       1  UNL1        0.2103
@<TRIPOS>BOND
     1     1     2    1
     2     2     3    1
     3     3     4    1
     4     4     5    1
     5     5     6    1
     6     6     7    1
     7     7     8    1
     8     7     9    1
     9     9    10    1
    10    10    11    1
    11    10     2    1
    12     8     3    1
    13    11     5    1
    14     1    12    1
@<TRIPOS>MOLECULE
*****
 12 14 0 0 0
SMALL
GASTEIGER

@<TRIPOS>ATOM
      1 O          62.6886   82.9675   15.6550 O.3     1  UNL1       -0.3845
      2 C          62.8035   82.3339   14.3002 C.3     1  UNL1        0.1104
      3 C          63.4307   83.0925   13.1683 C.3     1  UNL1        0.0269
      4 C          64.0579   83.8511   12.0364 C.3     1  UNL1        0.0024
      5 C          64.1728   83.2175   10.6816 C.3     1  UNL1        0.0002
      6 C          63.6606   81.8254   10.4588 C.3     1  UNL1        0.0000
      7 C          63.0334   81.0669   11.5907 C.3     1  UNL1        0.0002
      8 C          62.9185   81.7004   12.9454 C.3     1  UNL1        0.0024
      9 C          62.4062   80.3083   12.7225 C.3     1  UNL1        0.0024
     10 C          62.2913   80.9419   14.0774 C.3     1  UNL1        0.0269
     11 C          63.7444   83.1453   12.1173 C.3     1  UNL1        0.0024
     12 H          63.0649   83.8611   15.6270 H       1  UNL1        0.2103
@<TRIPOS>BOND
     1     1     2    1
     2     2     3    1
     3     3     4    1
     4     4     5    1
     5     5     6    1
     6     6     7    1
     7     7     8    1
     8     7     9    1
     9     9    10    1
    10    10    11    1
    11    10     2    1
    12     8     3    1
    13    11     5    1
    14     1    12    1
@<TRIPOS>MOLECULE
*****
 12 14 0 0 0
SMALL
GASTEIGER

@<TRIPOS>ATOM
      1 O          62.1327   87.5841   11.6352 O.3     1  UNL1       -0.3845
      2 C          61.5413   87.0995   10.3448 C.3     1  UNL1        0.1104
      3 C          62.3371   86.2001    9.4459 C.3     1  UNL1        0.0269
      4 C          63.1330   85.3008    8.5472 C.3     1  UNL1        0.0024
      5 C          62.5415   84.8162    7.2567 C.3     1  UNL1        0.0002
      6 C          61.1542   85.2310    6.8650 C.3     1  UNL1        0.0000
      7 C          60.3584   86.1303    7.7638 C.3     1  UNL1        0.0002
      8 C          60.9499   86.6149    9.0542 C.3     1  UNL1        0.0024
      9 C          59.5626   87.0296    8.6625 C.3     1  UNL1        0.0024
     10 C          60.1540   87.5143    9.9531 C.3     1  UNL1        0.0269
     11 C          62.4235   85.6152    8.5207 C.3     1  UNL1        0.0024
     12 H          63.0287   87.2259   11.7349 H       1  UNL1        0.2103
@<TRIPOS>BOND
     1     1     2    1
     2     2     3    1
     3     3     4    1
     4     4     5    1
     5     5     6    1
     6     6     7    1
     7     7     8    1
     8     7     9    1
     9     9    10    1
    10    10    11    1
    11    10     2    1
    12     8     3    1
    13    11     5    1
    14     1    12    1
@<TRIPOS>MOLECULE
*****
 12 14 0 0 0
SMALL
GASTEIGER

@<TRIPOS>ATOM
      1 O          61.0287   81.0323   14.6107 O.3     1  UNL1       -0.3845
      2 C          62.0147   81.9221   13.9135 C.3     1  UNL1        0.1104
      3 C          62.4840   81.5822   12.5299 C.3     1  UNL1        0.0269
      4 C          62.9533   81.2423   11.1464 C.3     1  UNL1        0.0024
      5 C          63.9393   82.1321   10.4492 C.3     1  UNL1        0.0002
      6 C          64.4559   83.3618   11.1355 C.3     1  UNL1        0.0000
      7 C          63.9866   83.7017   12.5190 C.3     1  UNL1        0.0002
      8 C          63.0007   82.8119   13.2162 C.3     1  UNL1        0.0024
      9 C          63.5173   84.0415   13.9025 C.3     1  UNL1        0.0024
     10 C          62.5313   83.1517   14.5998 C.3     1  UNL1        0.0269
     11 C          63.0991   81.8146   11.6505 C.3     1  UNL1        0.0024
     12 H          60.7995   80.2880   14.0324 H       1  UNL1        0.2103
@<TRIPOS>BOND
     1     1     2    1
     2     2     3    1
     3     3     4    1
     4     4     5    1
     5     5     6    1
     6     6     7    1
     7     7     8    1
     8     7     9    1
     9     9    10    1
    10    10    11    1
    11    10     2    1
    12     8     3    1
    13    11     5    1
    14     1    12    1
@<TRIPOS>MOLECULE
*****
 12 14 0 0 0
SMALL
GASTEIGER

@<TRIPOS>ATOM
      1 O          62.1985   84.8608   15.5157 O.3     1  UNL1       -0.3845
      2 C          62.4914   84.1019   14.2554 C.3     1  UNL1        0.1104
      3 C          62.3078   82.6137   14.2162 C.3     1  UNL1        0.0269
      4 C          62.1241   81.1255   14.1770 C.3     1  UNL1        0.0024
      5 C          62.4170   80.3667   12.9167 C.3     1  UNL1        0.0002
      6 C          62.8934   81.0960   11.6956 C.3     1  UNL1        0.0000
      7 C          63.0771   82.5842   11.7348 C.3     1  UNL1        0.0002
      8 C          62.7842   83.3430   12.9951 C.3     1  UNL1        0.0024
      9 C          63.2607   84.0723   11.7740 C.3     1  UNL1        0.0024
     10 C          62.9679   84.8313   13.0344 C.3     1  UNL1        0.0269
     11 C          62.3539   81.6640   13.6670 C.3     1  UNL1        0.0024
     12 H          61.9031   84.2438   16.2034 H       1  UNL1        0.2103
@<TRIPOS>BOND
     1     1     2    1
     2     2     3    1
     3     3     4    1
     4     4     5    1
     5     5     6    1
     6     6     7    1
     7     7     8    1
     8     7     9    1
     9     9    10    1
    10    10    11    1
    11    10     2    1
    12     8     3    1
    13    11     5    1
    14     1    12    1
@<TRIPOS>MOLECULE
*****
 12 14 0 0 0
SMALL
GASTEIGER

@<TRIPOS>ATOM
      1 O          62.9499   85.2025    7.5602 O.3     1  UNL1       -0.3845
      2 C          62.8866   85.0211    9.0478 C.3     1  UNL1        0.1104
      3 C          63.6323   83.8937    9.6984 C.3     1  UNL1        0.0269
      4 C          64.3780   82.7664   10.3488 C.3     1  UNL1        0.0024
      5 C          64.3147   82.5850   11.8364 C.3     1  UNL1        0.0002
      6 C          63.5057   83.5309   12.6736 C.3     1  UNL1        0.0000
      7 C          62.7600   84.6582   12.0231 C.3     1  UNL1        0.0002
      8 C          62.8233   84.8396   10.5355 C.3     1  UNL1        0.0024
      9 C          62.0143   85.7855   11.3727 C.3     1  UNL1        0.0024
     10 C          62.0776   85.9669    9.8850 C.3     1  UNL1        0.0269
     11 C          63.9207   83.3406   10.6020 C.3     1  UNL1        0.0024
     12 H          63.5108   84.5118    7.1739 H       1  UNL1        0.2103
@<TRIPOS>BOND
     1     1     2    1
     2     2     3    1
     3     3     4    1
     4     4     5    1
     5     5     6    1
     6     6     7    1
     7     7     8    1
     8     7     9    1
     9     9    10    1
    10    10    11    1
    11    10     2    1
    12     8     3    1
    13    11     5    1
    14     1    12    1
@<TRIPOS>MOLECULE
*****
 12 14 0 0 0
SMALL
GASTEIGER

@<TRIPOS>ATOM
      1 O          67.9212   96.8559    8.0234 O.3     1  UNL1       -0.3845
      2 C          67.4551   95.8686    9.0519 C.3     1  UNL1        0.1104
      3 C          67.9252   94.4453    8.9926 C.3     1  UNL1        0.0269
      4 C          68.3954   93.0222    8.9333 C.3     1  UNL1        0.0024
      5 C          67.9293   92.0349    9.9618 C.3     1  UNL1        0.0002
      6 C          66.9929   92.4707   11.0496 C.3     1  UNL1        0.0000
      7 C          66.5227   93.8938   11.1089 C.3     1  UNL1        0.0002
      8 C          66.9889   94.8812   10.0804 C.3     1  UNL1        0.0024
      9 C          66.0526   95.3170   11.1682 C.3     1  UNL1        0.0024
     10 C          66.5187   96.3044   10.1397 C.3     1  UNL1        0.0269
     11 C          67.9269   93.4266    9.4022 C.3     1  UNL1        0.0024
     12 H          68.5168   96.4143    7.3979 H       1  UNL1        0.2103
@<TRIPOS>BOND
     1     1     2    1
     2     2     3    1
     3     3     4    1
     4     4     5    1
     5     5     6    1
     6     6     7    1
     7     7     8    1
     8     7     9    1
     9     9    10    1
    10    10    11    1
    11    10     2    1
    12     8     3    1
    13    11     5    1
    14     1    12    1
