@<TRIPOS>MOLECULE
*****
 41 47 0 0 0
SMALL
GASTEIGER

@<TRIPOS>ATOM
      1 N          59.0913   92.9097    1.7101 N.pl3   1  UNL1       -0.2696
      2 C          58.1720   92.3084    0.6887 C.3     1  UNL1        0.1189
      3 C          57.9199   93.0225   -0.6062 C.3     1  UNL1        0.1216
      4 N          58.5871   94.3378   -0.8796 N.am    1  UNL1       -0.2403
      5 C          58.3349   95.0518   -2.1745 C.2     1  UNL1        0.3078
      6 O          59.0021   96.3671   -2.4479 O.2     1  UNL1       -0.2522
      7 N          57.4156   94.4505   -3.1958 N.am    1  UNL1       -0.2901
      8 C          59.5064   94.9391    0.1418 C.ar    1  UNL1        0.0689
      9 C          60.1736   96.2544   -0.1317 C.ar    1  UNL1        0.0162
     10 C          61.0929   96.8557    0.8897 C.ar    1  UNL1        0.0014
     11 C          61.3451   96.1417    2.1845 C.ar    1  UNL1        0.0014
     12 C          60.6779   94.8264    2.4580 C.ar    1  UNL1        0.0161
     13 C          59.7586   94.2251    1.4366 C.ar    1  UNL1        0.0666
     14 H          56.9777   93.5872   -3.0164 H       1  UNL1        0.1509
     15 C          57.1634   95.1645   -4.4907 C.3     1  UNL1        0.0731
     16 C          55.7568   95.4267   -4.9410 C.3     1  UNL1        0.0204
     17 C          56.9113   95.8785   -5.7855 C.3     1  UNL1        0.0018
     18 C          56.6592   96.5925   -7.0804 C.3     1  UNL1        0.0024
     19 C          58.0657   96.3303   -6.6300 C.3     1  UNL1        0.0018
     20 C          58.3178   95.6163   -5.3352 C.3     1  UNL1        0.0204
     21 C          55.5767   96.5124   -6.9138 C.3     1  UNL1        0.0285
     22 C          54.0981   96.4029   -6.6862 C.3     1  UNL1        0.0884
     23 O          52.6916   96.6651   -7.1366 O.3     1  UNL1       -0.3867
     24 C          55.2525   96.8547   -7.5307 C.3     1  UNL1        0.0269
     25 C          54.3503   95.6889   -5.3914 C.3     1  UNL1        0.0285
     26 H          52.7060   97.1320   -7.9867 H       1  UNL1        0.2102
     27 C          59.8478   90.7677    5.5946 C.ar    1  UNL1        0.0675
     28 C          60.9795   91.0149    4.6417 C.ar    1  UNL1        0.0190
     29 C          60.7273   91.7289    3.3468 C.ar    1  UNL1        0.0359
     30 C          59.3435   92.1957    3.0049 C.ar    1  UNL1        0.1356
     31 N          58.2117   91.9485    3.9578 N.ar    1  UNL1       -0.2276
     32 C          58.4638   91.2345    5.2527 C.ar    1  UNL1        0.1147
     33 C          60.6260   86.4326   10.8720 C.3     1  UNL1        0.0948
     34 C          60.8563   87.9116   10.7739 C.2     1  UNL1        0.2262
     35 O          61.3388   88.6766   11.9706 O.2     1  UNL1       -0.2749
     36 N          60.6042   88.6257    9.4791 N.am    1  UNL1       -0.2760
     37 C          60.1217   87.8607    8.2824 C.3     1  UNL1        0.1148
     38 C          59.8696   88.5747    6.9875 C.3     1  UNL1        0.1124
     39 N          60.0999   90.0537    6.8894 N.pl3   1  UNL1       -0.3028
     40 C          60.5824   90.8186    8.0861 C.3     1  UNL1        0.1124
     41 C          60.8345   90.1046    9.3809 C.3     1  UNL1        0.1148
@<TRIPOS>BOND
     1    33    34    1
     2    34    35    2
     3    34    36   am
     4    36    37    1
     5    37    38    1
     6    38    39    1
     7    39    27    1
     8    27    28   ar
     9    28    29   ar
    10    29    30   ar
    11    30     1    1
    12     1     2    1
    13     2     3    1
    14     3     4    1
    15     4     5   am
    16     5     6    2
    17     5     7   am
    18    15     7    1
    19    15    16    1
    20    16    17    1
    21    17    18    1
    22    18    19    1
    23    19    20    1
    24    20    21    1
    25    21    22    1
    26    22    23    1
    27    22    24    1
    28    22    25    1
    29     4     8    1
    30     8     9   ar
    31     9    10   ar
    32    10    11   ar
    33    11    12   ar
    34    12    13   ar
    35    30    31   ar
    36    31    32   ar
    37    39    40    1
    38    40    41    1
    39    41    36    1
    40    32    27   ar
    41    13     1    1
    42    20    15    1
    43    13     8   ar
    44    25    16    1
    45    24    18    1
    46     7    14    1
    47    23    26    1
@<TRIPOS>MOLECULE
*****
 41 47 0 0 0
SMALL
GASTEIGER

@<TRIPOS>ATOM
      1 N          60.9260   90.2843    7.2410 N.pl3   1  UNL1       -0.2696
      2 C          61.9778   90.8648    8.1391 C.3     1  UNL1        0.1189
      3 C          62.3349   90.1726    9.4210 C.3     1  UNL1        0.1216
      4 N          61.6402   88.8999    9.8049 N.am    1  UNL1       -0.2403
      5 C          61.9973   88.2077   11.0868 C.2     1  UNL1        0.3078
      6 O          61.3025   86.9348   11.4706 O.2     1  UNL1       -0.2522
      7 N          63.0490   88.7882   11.9849 N.am    1  UNL1       -0.2901
      8 C          60.5883   88.3192    8.9068 C.ar    1  UNL1        0.0689
      9 C          59.8936   87.0464    9.2906 C.ar    1  UNL1        0.0162
     10 C          58.8418   86.4659    8.3925 C.ar    1  UNL1        0.0014
     11 C          58.4847   87.1581    7.1106 C.ar    1  UNL1        0.0014
     12 C          59.1794   88.4308    6.7267 C.ar    1  UNL1        0.0161
     13 C          60.2312   89.0114    7.6248 C.ar    1  UNL1        0.0666
     14 H          63.5050   89.6236   11.7330 H       1  UNL1        0.1509
     15 C          63.4061   88.0960   13.2668 C.3     1  UNL1        0.0731
     16 C          63.4967   86.5994   13.3111 C.3     1  UNL1        0.0204
     17 C          63.7632   87.4038   14.5488 C.3     1  UNL1        0.0018
     18 C          64.1203   86.7116   15.8307 C.3     1  UNL1        0.0024
     19 C          64.0298   88.2082   15.7864 C.3     1  UNL1        0.0018
     20 C          63.6727   88.9004   14.5045 C.3     1  UNL1        0.0204
     21 C          64.0459   85.7391   15.3263 C.3     1  UNL1        0.0285
     22 C          63.9443   84.4106   14.6373 C.3     1  UNL1        0.0884
     23 O          64.0348   82.9140   14.6815 O.3     1  UNL1       -0.3867
     24 C          64.2108   85.2150   15.8749 C.3     1  UNL1        0.0269
     25 C          63.5872   85.1028   13.3553 C.3     1  UNL1        0.0285
     26 H          64.2738   82.6309   15.5780 H       1  UNL1        0.2102
     27 C          59.8548   92.3608    3.3952 C.ar    1  UNL1        0.0675
     28 C          58.7899   92.0636    4.4089 C.ar    1  UNL1        0.0190
     29 C          59.1470   91.3714    5.6908 C.ar    1  UNL1        0.0359
     30 C          60.5689   90.9764    5.9591 C.ar    1  UNL1        0.1356
     31 N          61.6339   91.2737    4.9454 N.ar    1  UNL1       -0.2276
     32 C          61.2768   91.9659    3.6634 C.ar    1  UNL1        0.1147
     33 C          58.8836   96.5371   -1.9775 C.3     1  UNL1        0.0948
     34 C          58.4264   95.1296   -1.7325 C.2     1  UNL1        0.2262
     35 O          57.6122   94.4144   -2.7695 O.2     1  UNL1       -0.2749
     36 N          58.7835   94.4374   -0.4506 N.am    1  UNL1       -0.2760
     37 C          59.5978   95.1528    0.5864 C.3     1  UNL1        0.1148
     38 C          59.9549   94.4606    1.8683 C.3     1  UNL1        0.1124
     39 N          59.4977   93.0530    2.1133 N.pl3   1  UNL1       -0.3028
     40 C          58.6834   92.3378    1.0763 C.3     1  UNL1        0.1124
     41 C          58.3263   93.0300   -0.2056 C.3     1  UNL1        0.1148
@<TRIPOS>BOND
     1    33    34    1
     2    34    35    2
     3    34    36   am
     4    36    37    1
     5    37    38    1
     6    38    39    1
     7    39    27    1
     8    27    28   ar
     9    28    29   ar
    10    29    30   ar
    11    30     1    1
    12     1     2    1
    13     2     3    1
    14     3     4    1
    15     4     5   am
    16     5     6    2
    17     5     7   am
    18    15     7    1
    19    15    16    1
    20    16    17    1
    21    17    18    1
    22    18    19    1
    23    19    20    1
    24    20    21    1
    25    21    22    1
    26    22    23    1
    27    22    24    1
    28    22    25    1
    29     4     8    1
    30     8     9   ar
    31     9    10   ar
    32    10    11   ar
    33    11    12   ar
    34    12    13   ar
    35    30    31   ar
    36    31    32   ar
    37    39    40    1
    38    40    41    1
    39    41    36    1
    40    32    27   ar
    41    13     1    1
    42    20    15    1
    43    13     8   ar
    44    25    16    1
    45    24    18    1
    46     7    14    1
    47    23    26    1
@<TRIPOS>MOLECULE
*****
 41 47 0 0 0
SMALL
GASTEIGER

@<TRIPOS>ATOM
      1 N          60.6540   88.8732    7.6556 N.pl3   1  UNL1       -0.2696
      2 C          61.2703   87.5308    7.3948 C.3     1  UNL1        0.1189
      3 C          61.5331   86.5920    8.5348 C.3     1  UNL1        0.1216
      4 N          61.1795   86.9956    9.9355 N.am    1  UNL1       -0.2403
      5 C          61.4423   86.0567   11.0755 C.2     1  UNL1        0.3078
      6 O          61.0887   86.4604   12.4763 O.2     1  UNL1       -0.2522
      7 N          62.0586   84.7143   10.8148 N.am    1  UNL1       -0.2901
      8 C          60.5632   88.3380   10.1964 C.ar    1  UNL1        0.0689
      9 C          60.2096   88.7416   11.5971 C.ar    1  UNL1        0.0162
     10 C          59.5933   90.0840   11.8578 C.ar    1  UNL1        0.0014
     11 C          59.3305   91.0229   10.7179 C.ar    1  UNL1        0.0014
     12 C          59.6841   90.6193    9.3171 C.ar    1  UNL1        0.0161
     13 C          60.3004   89.2769    9.0564 C.ar    1  UNL1        0.0666
     14 H          62.2907   84.4494    9.8954 H       1  UNL1        0.1509
     15 C          62.3214   83.7755   11.9547 C.3     1  UNL1        0.0731
     16 C          62.3768   82.2964   11.7107 C.3     1  UNL1        0.0204
     17 C          62.5842   82.8366   13.0947 C.3     1  UNL1        0.0018
     18 C          62.8470   81.8978   14.2347 C.3     1  UNL1        0.0024
     19 C          62.7916   83.3768   14.4786 C.3     1  UNL1        0.0018
     20 C          62.5288   84.3156   13.3386 C.3     1  UNL1        0.0204
     21 C          62.7827   81.0444   13.5466 C.3     1  UNL1        0.0285
     22 C          62.6950   79.8786   12.6068 C.3     1  UNL1        0.0884
     23 O          62.7504   78.3997   12.3629 O.3     1  UNL1       -0.3867
     24 C          62.9024   80.4188   13.9907 C.3     1  UNL1        0.0269
     25 C          62.4322   80.8175   11.4668 C.3     1  UNL1        0.0285
     26 H          62.9278   77.9406   13.1987 H       1  UNL1        0.2102
     27 C          59.8657   91.6898    4.2357 C.ar    1  UNL1        0.0675
     28 C          58.7184   91.0937    4.9961 C.ar    1  UNL1        0.0190
     29 C          58.9811   90.1549    6.1361 C.ar    1  UNL1        0.0359
     30 C          60.3912   89.8121    6.5156 C.ar    1  UNL1        0.1356
     31 N          61.5386   90.4081    5.7552 N.ar    1  UNL1       -0.2276
     32 C          61.2759   91.3470    4.6152 C.ar    1  UNL1        0.1147
     33 C          58.0363   94.9763   -1.5178 C.3     1  UNL1        0.0948
     34 C          58.8146   95.4451   -0.3242 C.2     1  UNL1        0.2262
     35 O          59.3300   96.8527   -0.2706 O.2     1  UNL1       -0.2749
     36 N          59.0774   94.5063    0.8158 N.am    1  UNL1       -0.2760
     37 C          58.5619   93.0986    0.7621 C.3     1  UNL1        0.1148
     38 C          58.8247   92.1597    1.9021 C.3     1  UNL1        0.1124
     39 N          59.6029   92.6286    3.0957 N.pl3   1  UNL1       -0.3028
     40 C          60.1183   94.0362    3.1493 C.3     1  UNL1        0.1124
     41 C          59.8556   94.9750    2.0093 C.3     1  UNL1        0.1148
@<TRIPOS>BOND
     1    33    34    1
     2    34    35    2
     3    34    36   am
     4    36    37    1
     5    37    38    1
     6    38    39    1
     7    39    27    1
     8    27    28   ar
     9    28    29   ar
    10    29    30   ar
    11    30     1    1
    12     1     2    1
    13     2     3    1
    14     3     4    1
    15     4     5   am
    16     5     6    2
    17     5     7   am
    18    15     7    1
    19    15    16    1
    20    16    17    1
    21    17    18    1
    22    18    19    1
    23    19    20    1
    24    20    21    1
    25    21    22    1
    26    22    23    1
    27    22    24    1
    28    22    25    1
    29     4     8    1
    30     8     9   ar
    31     9    10   ar
    32    10    11   ar
    33    11    12   ar
    34    12    13   ar
    35    30    31   ar
    36    31    32   ar
    37    39    40    1
    38    40    41    1
    39    41    36    1
    40    32    27   ar
    41    13     1    1
    42    20    15    1
    43    13     8   ar
    44    25    16    1
    45    24    18    1
    46     7    14    1
    47    23    26    1
@<TRIPOS>MOLECULE
*****
 41 47 0 0 0
SMALL
GASTEIGER

@<TRIPOS>ATOM
      1 N          60.6641   88.8027    7.4257 N.pl3   1  UNL1       -0.2696
      2 C          61.2554   87.4558    7.1325 C.3     1  UNL1        0.1189
      3 C          61.5392   86.5010    8.2541 C.3     1  UNL1        0.1216
      4 N          61.2317   86.8932    9.6689 N.am    1  UNL1       -0.2403
      5 C          61.5154   85.9385   10.7904 C.2     1  UNL1        0.3078
      6 O          61.2079   86.3307   12.2052 O.2     1  UNL1       -0.2522
      7 N          62.1067   84.5915   10.4972 N.am    1  UNL1       -0.2901
      8 C          60.6403   88.2403    9.9621 C.ar    1  UNL1        0.0689
      9 C          60.3328   88.6325   11.3769 C.ar    1  UNL1        0.0162
     10 C          59.7415   89.9794   11.6701 C.ar    1  UNL1        0.0014
     11 C          59.4578   90.9342   10.5485 C.ar    1  UNL1        0.0014
     12 C          59.7653   90.5420    9.1337 C.ar    1  UNL1        0.0161
     13 C          60.3566   89.1950    8.8406 C.ar    1  UNL1        0.0666
     14 H          62.3086   84.3341    9.5687 H       1  UNL1        0.1509
     15 C          62.3905   83.6367   11.6188 C.3     1  UNL1        0.0731
     16 C          62.9202   84.1502   12.9249 C.3     1  UNL1        0.0204
     17 C          62.6743   82.6820   12.7403 C.3     1  UNL1        0.0018
     18 C          62.9581   81.7272   13.8619 C.3     1  UNL1        0.0024
     19 C          62.4285   81.2138   12.5558 C.3     1  UNL1        0.0018
     20 C          62.1447   82.1686   11.4343 C.3     1  UNL1        0.0204
     21 C          63.2858   82.5647   14.4919 C.3     1  UNL1        0.0285
     22 C          63.7336   83.7088   15.3526 C.3     1  UNL1        0.0884
     23 O          64.2632   84.2221   16.6586 O.3     1  UNL1       -0.3867
     24 C          63.4877   82.2406   15.1680 C.3     1  UNL1        0.0269
     25 C          63.4498   84.6635   14.2310 C.3     1  UNL1        0.0285
     26 H          64.3907   83.4799   17.2700 H       1  UNL1        0.2102
     27 C          59.8128   91.6670    4.0611 C.ar    1  UNL1        0.0675
     28 C          58.6793   91.0488    4.8246 C.ar    1  UNL1        0.0190
     29 C          58.9631   90.0940    5.9462 C.ar    1  UNL1        0.0359
     30 C          60.3803   89.7575    6.3042 C.ar    1  UNL1        0.1356
     31 N          61.5138   90.3758    5.5406 N.ar    1  UNL1       -0.2276
     32 C          61.2301   91.3305    4.4191 C.ar    1  UNL1        0.1147
     33 C          57.7827   95.0710   -1.5552 C.3     1  UNL1        0.0948
     34 C          58.6776   95.4861   -0.4252 C.2     1  UNL1        0.2262
     35 O          59.2887   96.8559   -0.4168 O.2     1  UNL1       -0.2749
     36 N          58.9614   94.5313    0.6964 N.am    1  UNL1       -0.2760
     37 C          58.3502   93.1615    0.6879 C.3     1  UNL1        0.1148
     38 C          58.6340   92.2067    1.8095 C.3     1  UNL1        0.1124
     39 N          59.5290   92.6218    2.9395 N.pl3   1  UNL1       -0.3028
     40 C          60.1401   93.9916    2.9479 C.3     1  UNL1        0.1124
     41 C          59.8563   94.9464    1.8264 C.3     1  UNL1        0.1148
@<TRIPOS>BOND
     1    33    34    1
     2    34    35    2
     3    34    36   am
     4    36    37    1
     5    37    38    1
     6    38    39    1
     7    39    27    1
     8    27    28   ar
     9    28    29   ar
    10    29    30   ar
    11    30     1    1
    12     1     2    1
    13     2     3    1
    14     3     4    1
    15     4     5   am
    16     5     6    2
    17     5     7   am
    18    15     7    1
    19    15    16    1
    20    16    17    1
    21    17    18    1
    22    18    19    1
    23    19    20    1
    24    20    21    1
    25    21    22    1
    26    22    23    1
    27    22    24    1
    28    22    25    1
    29     4     8    1
    30     8     9   ar
    31     9    10   ar
    32    10    11   ar
    33    11    12   ar
    34    12    13   ar
    35    30    31   ar
    36    31    32   ar
    37    39    40    1
    38    40    41    1
    39    41    36    1
    40    32    27   ar
    41    13     1    1
    42    20    15    1
    43    13     8   ar
    44    25    16    1
    45    24    18    1
    46     7    14    1
    47    23    26    1
