@<TRIPOS>MOLECULE
*****
 37 41 0 0 0
SMALL
GASTEIGER

@<TRIPOS>ATOM
      1 C          64.4724   91.0564   13.7723 C.3     1  UNL1        0.2777
      2 O          65.4802   91.6215   14.7288 O.3     1  UNL1       -0.4230
      3 C          66.5387   92.3199   13.9278 C.2     1  UNL1        0.4117
      4 O          67.7399   93.0276   14.4813 O.2     1  UNL1       -0.2257
      5 N          66.1853   92.1864   12.4762 N.am    1  UNL1       -0.1902
      6 C          64.9082   91.4055   12.3801 C.2     1  UNL1        0.2797
      7 O          64.1925   91.0382   11.1140 O.2     1  UNL1       -0.2700
      8 C          62.0324   89.0442   11.5222 C.ar    1  UNL1        0.2499
      9 N          61.0777   89.6802   12.4887 N.ar    1  UNL1       -0.1071
     10 N          61.8755   90.5114   13.4492 N.ar    1  UNL1       -0.1072
     11 C          63.3233   90.3891   13.0763 C.ar    1  UNL1        0.2714
     12 O          63.4203   89.4823   11.8854 O.2     1  UNL1       -0.4156
     13 C          60.1582   87.5723    8.3487 C.ar    1  UNL1        0.1419
     14 C          60.9269   86.3031    8.1289 C.ar    1  UNL1        0.0738
     15 C          62.0641   85.9476    9.0402 C.ar    1  UNL1        0.1419
     16 C          62.4326   86.8613   10.1713 C.ar    1  UNL1        0.0418
     17 C          61.6639   88.1304   10.3911 C.ar    1  UNL1        0.0611
     18 C          60.5268   88.4859    9.4798 C.ar    1  UNL1        0.0418
     19 C          59.0560   89.2098    6.6594 C.3     1  UNL1        0.2525
     20 O          59.0211   87.9278    7.4374 O.3     1  UNL1       -0.4713
     21 O          62.8327   84.6784    8.8204 O.3     1  UNL1       -0.4713
     22 C          63.5805   84.0479    9.9577 C.3     1  UNL1        0.2525
     23 C          66.9709   92.7372   11.3232 C.3     1  UNL1        0.1082
     24 C          68.0565   91.9149   10.6945 C.3     1  UNL1        0.0270
     25 C          66.6708   94.1101   10.7988 C.ar    1  UNL1       -0.0038
     26 C          66.1053   95.1554   11.7140 C.ar    1  UNL1       -0.0027
     27 C          65.8052   96.5284   11.1897 C.ar    1  UNL1       -0.0003
     28 C          66.0707   96.8560    9.7502 C.ar    1  UNL1       -0.0000
     29 C          66.6361   95.8108    8.8350 C.ar    1  UNL1       -0.0003
     30 C          66.9362   94.4377    9.3593 C.ar    1  UNL1       -0.0027
     31 C          63.7964   90.5677   15.0190 C.3     1  UNL1        0.0849
     32 C          63.8254   89.1085   15.3651 C.ar    1  UNL1       -0.0177
     33 C          63.0957   88.6106   16.5773 C.ar    1  UNL1       -0.0041
     34 C          63.1247   87.1513   16.9234 C.ar    1  UNL1       -0.0003
     35 C          63.8833   86.1900   16.0573 C.ar    1  UNL1       -0.0000
     36 C          64.6130   86.6879   14.8450 C.ar    1  UNL1       -0.0003
     37 C          64.5841   88.1472   14.4989 C.ar    1  UNL1       -0.0041
@<TRIPOS>BOND
     1    19    20    1
     2    20    13    1
     3    13    14   ar
     4    14    15   ar
     5    15    21    1
     6    21    22    1
     7    15    16   ar
     8    16    17   ar
     9    17     8    1
    10     8     9   ar
    11     9    10   ar
    12    10    11   ar
    13    11     1    1
    14     1    31    1
    15    31    32    1
    16    32    33   ar
    17    33    34   ar
    18    34    35   ar
    19    35    36   ar
    20    36    37   ar
    21     1     2    1
    22     2     3    1
    23     3     4    2
    24     3     5   am
    25     5    23    1
    26    23    24    1
    27    23    25    1
    28    25    26   ar
    29    26    27   ar
    30    27    28   ar
    31    28    29   ar
    32    29    30   ar
    33     5     6   am
    34     6     7    2
    35    11    12   ar
    36    17    18   ar
    37    18    13   ar
    38    12     8   ar
    39     6     1    1
    40    37    32   ar
    41    30    25   ar
@<TRIPOS>MOLECULE
*****
 37 41 0 0 0
SMALL
GASTEIGER

@<TRIPOS>ATOM
      1 C          64.5183   91.1891   13.6268 C.3     1  UNL1        0.2777
      2 O          65.5303   91.7830   14.5612 O.3     1  UNL1       -0.4230
      3 C          66.5891   92.4503   13.7344 C.2     1  UNL1        0.4117
      4 O          67.7940   93.1723   14.2607 O.2     1  UNL1       -0.2257
      5 N          66.2315   92.2690   12.2891 N.am    1  UNL1       -0.1902
      6 C          64.9516   91.4895   12.2225 C.2     1  UNL1        0.2797
      7 O          64.2315   91.0819   10.9713 O.2     1  UNL1       -0.2700
      8 C          62.0670   89.1015   11.4591 C.ar    1  UNL1        0.2499
      9 N          61.1150   89.7902   12.3915 N.ar    1  UNL1       -0.1071
     10 N          61.9173   90.6560   13.3170 N.ar    1  UNL1       -0.1072
     11 C          63.3653   90.5025   12.9566 C.ar    1  UNL1        0.2714
     12 O          63.4578   89.5417   11.8084 O.2     1  UNL1       -0.4156
     13 C          62.0901   85.9048    9.1074 C.ar    1  UNL1        0.1419
     14 C          60.9474   86.2206    8.1885 C.ar    1  UNL1        0.0738
     15 C          60.1779   87.4968    8.3598 C.ar    1  UNL1        0.1419
     16 C          60.5511   88.4571    9.4500 C.ar    1  UNL1        0.0418
     17 C          61.6938   88.1412   10.3689 C.ar    1  UNL1        0.0611
     18 C          62.4633   86.8651   10.1976 C.ar    1  UNL1        0.0418
     19 C          63.5815   84.0255   10.1046 C.3     1  UNL1        0.2525
     20 O          62.8597   84.6287    8.9362 O.3     1  UNL1       -0.4713
     21 O          59.0352   87.8126    7.4408 O.3     1  UNL1       -0.4713
     22 C          59.0202   89.1049    6.6794 C.3     1  UNL1        0.2525
     23 C          67.0159   92.7778   11.1161 C.3     1  UNL1        0.1082
     24 C          68.0917   91.9278   10.5078 C.3     1  UNL1        0.0270
     25 C          66.7246   94.1366   10.5516 C.ar    1  UNL1       -0.0038
     26 C          67.1878   94.4894    9.1692 C.ar    1  UNL1       -0.0027
     27 C          66.8964   95.8482    8.6045 C.ar    1  UNL1       -0.0003
     28 C          66.1419   96.8541    9.4223 C.ar    1  UNL1       -0.0000
     29 C          65.6787   96.5013   10.8046 C.ar    1  UNL1       -0.0003
     30 C          65.9700   95.1425   11.3693 C.ar    1  UNL1       -0.0027
     31 C          63.8439   90.7452   14.8909 C.3     1  UNL1        0.0849
     32 C          63.8418   89.2939   15.2700 C.ar    1  UNL1       -0.0177
     33 C          64.5523   88.2925   14.4083 C.ar    1  UNL1       -0.0041
     34 C          64.5502   86.8413   14.7875 C.ar    1  UNL1       -0.0003
     35 C          63.8377   86.3912   16.0284 C.ar    1  UNL1       -0.0000
     36 C          63.1272   87.3926   16.8901 C.ar    1  UNL1       -0.0003
     37 C          63.1293   88.8439   16.5109 C.ar    1  UNL1       -0.0041
@<TRIPOS>BOND
     1    19    20    1
     2    20    13    1
     3    13    14   ar
     4    14    15   ar
     5    15    21    1
     6    21    22    1
     7    15    16   ar
     8    16    17   ar
     9    17     8    1
    10     8     9   ar
    11     9    10   ar
    12    10    11   ar
    13    11     1    1
    14     1    31    1
    15    31    32    1
    16    32    33   ar
    17    33    34   ar
    18    34    35   ar
    19    35    36   ar
    20    36    37   ar
    21     1     2    1
    22     2     3    1
    23     3     4    2
    24     3     5   am
    25     5    23    1
    26    23    24    1
    27    23    25    1
    28    25    26   ar
    29    26    27   ar
    30    27    28   ar
    31    28    29   ar
    32    29    30   ar
    33     5     6   am
    34     6     7    2
    35    11    12   ar
    36    17    18   ar
    37    18    13   ar
    38    12     8   ar
    39     6     1    1
    40    37    32   ar
    41    30    25   ar
@<TRIPOS>MOLECULE
*****
 37 41 0 0 0
SMALL
GASTEIGER

@<TRIPOS>ATOM
      1 C          62.7469   87.2014   11.4151 C.3     1  UNL1        0.2777
      2 O          62.5015   86.0072   10.5412 O.3     1  UNL1       -0.4230
      3 C          62.7911   84.7757   11.3470 C.2     1  UNL1        0.4117
      4 O          62.6764   83.3598   10.8654 O.2     1  UNL1       -0.2257
      5 N          63.2155   85.2087   12.7189 N.am    1  UNL1       -0.1902
      6 C          63.1883   86.7078   12.7611 C.2     1  UNL1        0.2797
      7 O          63.5405   87.5633   13.9419 O.2     1  UNL1       -0.2700
      8 C          63.8909   90.6204   12.8527 C.ar    1  UNL1        0.2499
      9 N          62.4164   90.6707   13.1238 N.ar    1  UNL1       -0.1071
     10 N          61.8084   89.3961   12.6183 N.ar    1  UNL1       -0.1072
     11 C          62.9071   88.5580   12.0347 C.ar    1  UNL1        0.2714
     12 O          64.1942   89.3147   12.1796 O.2     1  UNL1       -0.4156
     13 C          66.2479   93.7958   12.5184 C.ar    1  UNL1        0.1419
     14 C          66.8797   93.8243   13.8785 C.ar    1  UNL1        0.0738
     15 C          66.5152   92.7849   14.8968 C.ar    1  UNL1        0.1419
     16 C          65.5190   91.7169   14.5548 C.ar    1  UNL1        0.0418
     17 C          64.8872   91.6884   13.1947 C.ar    1  UNL1        0.0611
     18 C          65.2517   92.7279   12.1765 C.ar    1  UNL1        0.0418
     19 C          66.9012   94.4301   10.0852 C.3     1  UNL1        0.2525
     20 O          66.6123   94.8352   11.5002 O.3     1  UNL1       -0.4713
     21 O          67.1470   92.8134   16.2569 O.3     1  UNL1       -0.4713
     22 C          68.5957   92.4595   16.4185 C.3     1  UNL1        0.2525
     23 C          63.5998   84.3018   13.8502 C.3     1  UNL1        0.1082
     24 C          64.4506   84.8204   14.9715 C.3     1  UNL1        0.0270
     25 C          63.1334   82.8762   13.8603 C.ar    1  UNL1       -0.0038
     26 C          64.0833   81.7736   13.4970 C.ar    1  UNL1       -0.0027
     27 C          63.6169   80.3481   13.5071 C.ar    1  UNL1       -0.0003
     28 C          62.2005   80.0250   13.8804 C.ar    1  UNL1       -0.0000
     29 C          61.2505   81.1275   14.2437 C.ar    1  UNL1       -0.0003
     30 C          61.7169   82.5532   14.2337 C.ar    1  UNL1       -0.0027
     31 C          62.3391   87.9785   10.1987 C.3     1  UNL1        0.0849
     32 C          61.2784   87.4397    9.2852 C.ar    1  UNL1       -0.0177
     33 C          59.9058   88.0447    9.2905 C.ar    1  UNL1       -0.0041
     34 C          58.8451   87.5058    8.3770 C.ar    1  UNL1       -0.0003
     35 C          59.1569   86.3618    7.4582 C.ar    1  UNL1       -0.0000
     36 C          60.5294   85.7568    7.4529 C.ar    1  UNL1       -0.0003
     37 C          61.5901   86.2957    8.3664 C.ar    1  UNL1       -0.0041
@<TRIPOS>BOND
     1    19    20    1
     2    20    13    1
     3    13    14   ar
     4    14    15   ar
     5    15    21    1
     6    21    22    1
     7    15    16   ar
     8    16    17   ar
     9    17     8    1
    10     8     9   ar
    11     9    10   ar
    12    10    11   ar
    13    11     1    1
    14     1    31    1
    15    31    32    1
    16    32    33   ar
    17    33    34   ar
    18    34    35   ar
    19    35    36   ar
    20    36    37   ar
    21     1     2    1
    22     2     3    1
    23     3     4    2
    24     3     5   am
    25     5    23    1
    26    23    24    1
    27    23    25    1
    28    25    26   ar
    29    26    27   ar
    30    27    28   ar
    31    28    29   ar
    32    29    30   ar
    33     5     6   am
    34     6     7    2
    35    11    12   ar
    36    17    18   ar
    37    18    13   ar
    38    12     8   ar
    39     6     1    1
    40    37    32   ar
    41    30    25   ar
@<TRIPOS>MOLECULE
*****
 37 41 0 0 0
SMALL
GASTEIGER

@<TRIPOS>ATOM
      1 C          62.7421   87.2060   11.4400 C.3     1  UNL1        0.2777
      2 O          62.4934   86.0139   10.5642 O.3     1  UNL1       -0.4230
      3 C          62.7830   84.7805   11.3671 C.2     1  UNL1        0.4117
      4 O          62.6655   83.3656   10.8829 O.2     1  UNL1       -0.2257
      5 N          63.2106   85.2102   12.7391 N.am    1  UNL1       -0.1902
      6 C          63.1853   86.7093   12.7842 C.2     1  UNL1        0.2797
      7 O          63.5409   87.5620   13.9660 O.2     1  UNL1       -0.2700
      8 C          63.8925   90.6230   12.8777 C.ar    1  UNL1        0.2499
      9 N          62.4202   90.6703   13.1608 N.ar    1  UNL1       -0.1071
     10 N          61.8100   89.3961   12.6567 N.ar    1  UNL1       -0.1072
     11 C          62.9053   88.5612   12.0621 C.ar    1  UNL1        0.2714
     12 O          64.1922   89.3195   12.1986 O.2     1  UNL1       -0.4156
     13 C          66.5188   92.7946   14.9114 C.ar    1  UNL1        0.1419
     14 C          66.8845   93.8286   13.8882 C.ar    1  UNL1        0.0738
     15 C          66.2529   93.7941   12.5281 C.ar    1  UNL1        0.1419
     16 C          65.2555   92.7256   12.1913 C.ar    1  UNL1        0.0418
     17 C          64.8898   91.6916   13.2145 C.ar    1  UNL1        0.0611
     18 C          65.5215   91.7261   14.5746 C.ar    1  UNL1        0.0418
     19 C          68.5873   92.4334   16.4414 C.3     1  UNL1        0.2525
     20 O          67.1505   92.8291   16.2715 O.3     1  UNL1       -0.4713
     21 O          66.6186   94.8282   11.5048 O.3     1  UNL1       -0.4713
     22 C          66.9552   94.4108   10.1039 C.3     1  UNL1        0.2525
     23 C          63.5959   84.3005   13.8678 C.3     1  UNL1        0.1082
     24 C          64.4496   84.8158   14.9883 C.3     1  UNL1        0.0270
     25 C          63.1273   82.8756   13.8761 C.ar    1  UNL1       -0.0038
     26 C          61.7119   82.5537   14.2543 C.ar    1  UNL1       -0.0027
     27 C          61.2433   81.1289   14.2626 C.ar    1  UNL1       -0.0003
     28 C          62.1902   80.0258   13.8927 C.ar    1  UNL1       -0.0000
     29 C          63.6055   80.3476   13.5146 C.ar    1  UNL1       -0.0003
     30 C          64.0742   81.7726   13.5063 C.ar    1  UNL1       -0.0027
     31 C          62.3330   87.9861   10.2259 C.3     1  UNL1        0.0849
     32 C          61.2758   87.4464    9.3088 C.ar    1  UNL1       -0.0177
     33 C          61.5951   86.3107    8.3824 C.ar    1  UNL1       -0.0041
     34 C          60.5380   85.7710    7.4653 C.ar    1  UNL1       -0.0003
     35 C          59.1615   86.3670    7.4745 C.ar    1  UNL1       -0.0000
     36 C          58.8422   87.5027    8.4009 C.ar    1  UNL1       -0.0003
     37 C          59.8993   88.0424    9.3180 C.ar    1  UNL1       -0.0041
@<TRIPOS>BOND
     1    19    20    1
     2    20    13    1
     3    13    14   ar
     4    14    15   ar
     5    15    21    1
     6    21    22    1
     7    15    16   ar
     8    16    17   ar
     9    17     8    1
    10     8     9   ar
    11     9    10   ar
    12    10    11   ar
    13    11     1    1
    14     1    31    1
    15    31    32    1
    16    32    33   ar
    17    33    34   ar
    18    34    35   ar
    19    35    36   ar
    20    36    37   ar
    21     1     2    1
    22     2     3    1
    23     3     4    2
    24     3     5   am
    25     5    23    1
    26    23    24    1
    27    23    25    1
    28    25    26   ar
    29    26    27   ar
    30    27    28   ar
    31    28    29   ar
    32    29    30   ar
    33     5     6   am
    34     6     7    2
    35    11    12   ar
    36    17    18   ar
    37    18    13   ar
    38    12     8   ar
    39     6     1    1
    40    37    32   ar
    41    30    25   ar
@<TRIPOS>MOLECULE
*****
 37 41 0 0 0
SMALL
GASTEIGER

@<TRIPOS>ATOM
      1 C          62.1714   87.0333   11.0271 C.3     1  UNL1        0.2777
      2 O          61.8125   85.5959   10.7920 O.3     1  UNL1       -0.4230
      3 C          62.3913   84.7844   11.9128 C.2     1  UNL1        0.4117
      4 O          62.2740   83.2980   12.0771 O.2     1  UNL1       -0.2257
      5 N          63.1080   85.7200   12.8406 N.am    1  UNL1       -0.1902
      6 C          62.9721   87.1100   12.2932 C.2     1  UNL1        0.2797
      7 O          63.5376   88.3576   12.9045 O.2     1  UNL1       -0.2700
      8 C          63.3747   90.7185   11.2169 C.ar    1  UNL1        0.2499
      9 N          61.9853   90.8946   10.6799 N.ar    1  UNL1       -0.1071
     10 N          61.3653   89.5356   10.5435 N.ar    1  UNL1       -0.1072
     11 C          62.3717   88.5195   10.9961 C.ar    1  UNL1        0.2714
     12 O          63.6136   89.2507   11.4123 O.2     1  UNL1       -0.4156
     13 C          65.8230   93.7967   10.6871 C.ar    1  UNL1        0.1419
     14 C          66.3110   94.0153   12.0885 C.ar    1  UNL1        0.0738
     15 C          65.8203   93.1349   13.1994 C.ar    1  UNL1        0.1419
     16 C          64.8416   92.0360   12.9089 C.ar    1  UNL1        0.0418
     17 C          64.3536   91.8175   11.5075 C.ar    1  UNL1        0.0611
     18 C          64.8443   92.6979   10.3966 C.ar    1  UNL1        0.0418
     19 C          67.7449   94.5992    9.1339 C.3     1  UNL1        0.2525
     20 O          66.3138   94.6771    9.5762 O.3     1  UNL1       -0.4713
     21 O          66.3084   93.3535   14.6009 O.3     1  UNL1       -0.4713
     22 C          65.9048   92.4064   15.6919 C.3     1  UNL1        0.2525
     23 C          63.8333   85.3337   14.0955 C.3     1  UNL1        0.1082
     24 C          64.9272   84.3088   14.0442 C.3     1  UNL1        0.0270
     25 C          63.4645   85.9723   15.4017 C.ar    1  UNL1       -0.0038
     26 C          62.7818   85.1644   16.4652 C.ar    1  UNL1       -0.0027
     27 C          62.4131   85.8029   17.7714 C.ar    1  UNL1       -0.0003
     28 C          62.7271   87.2495   18.0141 C.ar    1  UNL1       -0.0000
     29 C          63.4098   88.0575   16.9507 C.ar    1  UNL1       -0.0003
     30 C          63.7786   87.4189   15.6444 C.ar    1  UNL1       -0.0027
     31 C          61.4126   87.2673    9.7545 C.3     1  UNL1        0.0849
     32 C          61.5555   86.3094    8.6091 C.ar    1  UNL1       -0.0177
     33 C          62.8825   85.6689    8.3281 C.ar    1  UNL1       -0.0041
     34 C          63.0254   84.7110    7.1827 C.ar    1  UNL1       -0.0003
     35 C          61.8413   84.3935    6.3183 C.ar    1  UNL1       -0.0000
     36 C          60.5144   85.0339    6.5993 C.ar    1  UNL1       -0.0003
     37 C          60.3715   85.9919    7.7447 C.ar    1  UNL1       -0.0041
@<TRIPOS>BOND
     1    19    20    1
     2    20    13    1
     3    13    14   ar
     4    14    15   ar
     5    15    21    1
     6    21    22    1
     7    15    16   ar
     8    16    17   ar
     9    17     8    1
    10     8     9   ar
    11     9    10   ar
    12    10    11   ar
    13    11     1    1
    14     1    31    1
    15    31    32    1
    16    32    33   ar
    17    33    34   ar
    18    34    35   ar
    19    35    36   ar
    20    36    37   ar
    21     1     2    1
    22     2     3    1
    23     3     4    2
    24     3     5   am
    25     5    23    1
    26    23    24    1
    27    23    25    1
    28    25    26   ar
    29    26    27   ar
    30    27    28   ar
    31    28    29   ar
    32    29    30   ar
    33     5     6   am
    34     6     7    2
    35    11    12   ar
    36    17    18   ar
    37    18    13   ar
    38    12     8   ar
    39     6     1    1
    40    37    32   ar
    41    30    25   ar
@<TRIPOS>MOLECULE
*****
 37 41 0 0 0
SMALL
GASTEIGER

@<TRIPOS>ATOM
      1 C          62.2041   87.0619   11.0261 C.3     1  UNL1        0.2777
      2 O          61.8671   85.6300   10.7328 O.3     1  UNL1       -0.4230
      3 C          62.4281   84.7859   11.8384 C.2     1  UNL1        0.4117
      4 O          62.3236   83.2936   11.9482 O.2     1  UNL1       -0.2257
      5 N          63.1119   85.6960   12.8151 N.am    1  UNL1       -0.1902
      6 C          62.9735   87.1027   12.3131 C.2     1  UNL1        0.2797
      7 O          63.5103   88.3341   12.9808 O.2     1  UNL1       -0.2700
      8 C          63.3922   90.7484   11.2789 C.ar    1  UNL1        0.2499
      9 N          61.9520   90.9332   10.9024 N.ar    1  UNL1       -0.1071
     10 N          61.3316   89.5747   10.7619 N.ar    1  UNL1       -0.1072
     11 C          62.3885   88.5504   11.0515 C.ar    1  UNL1        0.2714
     12 O          63.6619   89.2758   11.3710 O.2     1  UNL1       -0.4156
     13 C          65.9330   93.1628   13.1403 C.ar    1  UNL1        0.1419
     14 C          66.3790   94.0351   12.0045 C.ar    1  UNL1        0.0738
     15 C          65.8294   93.8118   10.6267 C.ar    1  UNL1        0.1419
     16 C          64.8338   92.7163   10.3849 C.ar    1  UNL1        0.0418
     17 C          64.3878   91.8440   11.5207 C.ar    1  UNL1        0.0611
     18 C          64.9374   92.0673   12.8984 C.ar    1  UNL1        0.0418
     19 C          66.0520   92.5009   15.6498 C.3     1  UNL1        0.2525
     20 O          66.4826   93.3861   14.5180 O.3     1  UNL1       -0.4713
     21 O          66.2755   94.6842    9.4909 O.3     1  UNL1       -0.4713
     22 C          67.6851   94.5955    8.9859 C.3     1  UNL1        0.2525
     23 C          63.8114   85.2736   14.0731 C.3     1  UNL1        0.1082
     24 C          64.8846   84.2270   14.0193 C.3     1  UNL1        0.0270
     25 C          63.4376   85.8979   15.3848 C.ar    1  UNL1       -0.0038
     26 C          62.7134   85.0900   16.4205 C.ar    1  UNL1       -0.0027
     27 C          62.3396   85.7141   17.7323 C.ar    1  UNL1       -0.0003
     28 C          62.6901   87.1463   18.0083 C.ar    1  UNL1       -0.0000
     29 C          63.4144   87.9542   16.9726 C.ar    1  UNL1       -0.0003
     30 C          63.7882   87.3300   15.6608 C.ar    1  UNL1       -0.0027
     31 C          61.4733   87.3324    9.7444 C.3     1  UNL1        0.0849
     32 C          61.5688   86.3592    8.6069 C.ar    1  UNL1       -0.0177
     33 C          62.8806   85.7063    8.2866 C.ar    1  UNL1       -0.0041
     34 C          62.9761   84.7332    7.1491 C.ar    1  UNL1       -0.0003
     35 C          61.7597   84.4129    6.3319 C.ar    1  UNL1       -0.0000
     36 C          60.4478   85.0659    6.6523 C.ar    1  UNL1       -0.0003
     37 C          60.3524   86.0390    7.7898 C.ar    1  UNL1       -0.0041
@<TRIPOS>BOND
     1    19    20    1
     2    20    13    1
     3    13    14   ar
     4    14    15   ar
     5    15    21    1
     6    21    22    1
     7    15    16   ar
     8    16    17   ar
     9    17     8    1
    10     8     9   ar
    11     9    10   ar
    12    10    11   ar
    13    11     1    1
    14     1    31    1
    15    31    32    1
    16    32    33   ar
    17    33    34   ar
    18    34    35   ar
    19    35    36   ar
    20    36    37   ar
    21     1     2    1
    22     2     3    1
    23     3     4    2
    24     3     5   am
    25     5    23    1
    26    23    24    1
    27    23    25    1
    28    25    26   ar
    29    26    27   ar
    30    27    28   ar
    31    28    29   ar
    32    29    30   ar
    33     5     6   am
    34     6     7    2
    35    11    12   ar
    36    17    18   ar
    37    18    13   ar
    38    12     8   ar
    39     6     1    1
    40    37    32   ar
    41    30    25   ar
@<TRIPOS>MOLECULE
*****
 37 41 0 0 0
SMALL
GASTEIGER

@<TRIPOS>ATOM
      1 C          64.2320   90.7099   14.3662 C.3     1  UNL1        0.2777
      2 O          64.9381   91.1684   15.6077 O.3     1  UNL1       -0.4230
      3 C          66.1873   91.8870   15.1919 C.2     1  UNL1        0.4117
      4 O          67.1938   92.5105   16.1128 O.2     1  UNL1       -0.2257
      5 N          66.2534   91.8726   13.6935 N.am    1  UNL1       -0.1902
      6 C          65.0450   91.1451   13.1831 C.2     1  UNL1        0.2797
      7 O          64.7085   90.8964   11.7426 O.2     1  UNL1       -0.2700
      8 C          62.3074   88.6172   11.7239 C.ar    1  UNL1        0.2499
      9 N          61.5055   89.8848   11.7299 N.ar    1  UNL1       -0.1071
     10 N          62.1288   90.8230   12.7204 N.ar    1  UNL1       -0.1072
     11 C          63.3160   90.1352   13.3266 C.ar    1  UNL1        0.2714
     12 O          63.4264   88.7720   12.7108 O.2     1  UNL1       -0.4156
     13 C          60.8844   86.3070    8.8276 C.ar    1  UNL1        0.1419
     14 C          61.4983   84.9874    9.1902 C.ar    1  UNL1        0.0738
     15 C          62.3819   84.8776   10.3973 C.ar    1  UNL1        0.1419
     16 C          62.6517   86.0875   11.2419 C.ar    1  UNL1        0.0418
     17 C          62.0377   87.4072   10.8793 C.ar    1  UNL1        0.0611
     18 C          61.1541   87.5169    9.6722 C.ar    1  UNL1        0.0418
     19 C          58.9864   87.5182    7.5312 C.3     1  UNL1        0.2525
     20 O          60.0008   86.4168    7.6205 O.3     1  UNL1       -0.4713
     21 O          62.9959   83.5578   10.7599 O.3     1  UNL1       -0.4713
     22 C          64.3253   83.1662   10.1860 C.3     1  UNL1        0.2525
     23 C          67.3376   92.4792   12.8528 C.3     1  UNL1        0.1082
     24 C          68.7677   92.0848   13.0744 C.3     1  UNL1        0.0270
     25 C          66.9916   93.4802   11.7907 C.ar    1  UNL1       -0.0038
     26 C          66.3177   94.7673   12.1640 C.ar    1  UNL1       -0.0027
     27 C          65.9717   95.7683   11.1019 C.ar    1  UNL1       -0.0003
     28 C          66.2996   95.4823    9.6664 C.ar    1  UNL1       -0.0000
     29 C          66.9734   94.1954    9.2930 C.ar    1  UNL1       -0.0003
     30 C          67.3195   93.1942   10.3552 C.ar    1  UNL1       -0.0027
     31 C          63.2276   90.1545   15.3320 C.3     1  UNL1        0.0849
     32 C          63.3592   88.7429   15.8220 C.ar    1  UNL1       -0.0177
     33 C          64.1352   87.7401   15.0207 C.ar    1  UNL1       -0.0041
     34 C          64.2669   86.3285   15.5108 C.ar    1  UNL1       -0.0003
     35 C          63.6224   85.9197   16.8021 C.ar    1  UNL1       -0.0000
     36 C          62.8464   86.9226   17.6034 C.ar    1  UNL1       -0.0003
     37 C          62.7148   88.3341   17.1134 C.ar    1  UNL1       -0.0041
@<TRIPOS>BOND
     1    19    20    1
     2    20    13    1
     3    13    14   ar
     4    14    15   ar
     5    15    21    1
     6    21    22    1
     7    15    16   ar
     8    16    17   ar
     9    17     8    1
    10     8     9   ar
    11     9    10   ar
    12    10    11   ar
    13    11     1    1
    14     1    31    1
    15    31    32    1
    16    32    33   ar
    17    33    34   ar
    18    34    35   ar
    19    35    36   ar
    20    36    37   ar
    21     1     2    1
    22     2     3    1
    23     3     4    2
    24     3     5   am
    25     5    23    1
    26    23    24    1
    27    23    25    1
    28    25    26   ar
    29    26    27   ar
    30    27    28   ar
    31    28    29   ar
    32    29    30   ar
    33     5     6   am
    34     6     7    2
    35    11    12   ar
    36    17    18   ar
    37    18    13   ar
    38    12     8   ar
    39     6     1    1
    40    37    32   ar
    41    30    25   ar
@<TRIPOS>MOLECULE
*****
 37 41 0 0 0
SMALL
GASTEIGER

@<TRIPOS>ATOM
      1 C          63.9289   90.7547   14.6130 C.3     1  UNL1        0.2777
      2 O          64.4089   91.1229   15.9856 O.3     1  UNL1       -0.4230
      3 C          65.5884   92.0371   15.8344 C.2     1  UNL1        0.4117
      4 O          66.3799   92.6474   16.9530 O.2     1  UNL1       -0.2257
      5 N          65.8373   92.2341   14.3685 N.am    1  UNL1       -0.1902
      6 C          64.8117   91.4415   13.6136 C.2     1  UNL1        0.2797
      7 O          64.6902   91.3515   12.1211 O.2     1  UNL1       -0.2700
      8 C          62.4413   88.7138   11.6656 C.ar    1  UNL1        0.2499
      9 N          61.8877   90.0787   11.3816 N.ar    1  UNL1       -0.1071
     10 N          62.3775   91.0094   12.4511 N.ar    1  UNL1       -0.1072
     11 C          63.2339   90.2196   13.3962 C.ar    1  UNL1        0.2714
     12 O          63.2733   88.8009   12.9107 O.2     1  UNL1       -0.4156
     13 C          62.5599   84.9343   10.4609 C.ar    1  UNL1        0.1419
     14 C          61.7309   85.0084    9.2130 C.ar    1  UNL1        0.0738
     15 C          61.1387   86.3176    8.7827 C.ar    1  UNL1        0.1419
     16 C          61.3755   87.5528    9.6002 C.ar    1  UNL1        0.0418
     17 C          62.2045   87.4787   10.8480 C.ar    1  UNL1        0.0611
     18 C          62.7967   86.1694   11.2784 C.ar    1  UNL1        0.0418
     19 C          63.0416   83.1858   12.3212 C.3     1  UNL1        0.2525
     20 O          63.1521   83.6251   10.8913 O.3     1  UNL1       -0.4713
     21 O          60.3096   86.3917    7.5347 O.3     1  UNL1       -0.4713
     22 C          59.0331   87.1794    7.5280 C.3     1  UNL1        0.2525
     23 C          66.9215   93.0759   13.7636 C.3     1  UNL1        0.1082
     24 C          68.0249   93.6117   14.6269 C.3     1  UNL1        0.0270
     25 C          66.9023   93.3819   12.2952 C.ar    1  UNL1       -0.0038
     26 C          67.5901   92.4638   11.3288 C.ar    1  UNL1       -0.0027
     27 C          67.5709   92.7697    9.8604 C.ar    1  UNL1       -0.0003
     28 C          66.8640   93.9938    9.3586 C.ar    1  UNL1       -0.0000
     29 C          66.1762   94.9119   10.3250 C.ar    1  UNL1       -0.0003
     30 C          66.1954   94.6060   11.7934 C.ar    1  UNL1       -0.0027
     31 C          62.9008   89.9561   15.3581 C.3     1  UNL1        0.0849
     32 C          63.2168   88.5604   15.8079 C.ar    1  UNL1       -0.0177
     33 C          62.6178   88.0273   17.0755 C.ar    1  UNL1       -0.0041
     34 C          62.9338   86.6316   17.5254 C.ar    1  UNL1       -0.0003
     35 C          63.8488   85.7691   16.7075 C.ar    1  UNL1       -0.0000
     36 C          64.4477   86.3022   15.4399 C.ar    1  UNL1       -0.0003
     37 C          64.1317   87.6979   14.9901 C.ar    1  UNL1       -0.0041
@<TRIPOS>BOND
     1    19    20    1
     2    20    13    1
     3    13    14   ar
     4    14    15   ar
     5    15    21    1
     6    21    22    1
     7    15    16   ar
     8    16    17   ar
     9    17     8    1
    10     8     9   ar
    11     9    10   ar
    12    10    11   ar
    13    11     1    1
    14     1    31    1
    15    31    32    1
    16    32    33   ar
    17    33    34   ar
    18    34    35   ar
    19    35    36   ar
    20    36    37   ar
    21     1     2    1
    22     2     3    1
    23     3     4    2
    24     3     5   am
    25     5    23    1
    26    23    24    1
    27    23    25    1
    28    25    26   ar
    29    26    27   ar
    30    27    28   ar
    31    28    29   ar
    32    29    30   ar
    33     5     6   am
    34     6     7    2
    35    11    12   ar
    36    17    18   ar
    37    18    13   ar
    38    12     8   ar
    39     6     1    1
    40    37    32   ar
    41    30    25   ar
@<TRIPOS>MOLECULE
*****
 37 41 0 0 0
SMALL
GASTEIGER

@<TRIPOS>ATOM
      1 C          64.3018   89.9868   14.0714 C.3     1  UNL1        0.2777
      2 O          65.4219   90.0062   15.0689 O.3     1  UNL1       -0.4230
      3 C          66.3373   91.1408   14.7160 C.2     1  UNL1        0.4117
      4 O          67.5875   91.5260   15.4498 O.2     1  UNL1       -0.2257
      5 N          65.7830   91.8226   13.5003 N.am    1  UNL1       -0.1902
      6 C          64.5250   91.1094   13.1019 C.2     1  UNL1        0.2797
      7 O          63.6447   91.4576   11.9383 O.2     1  UNL1       -0.2700
      8 C          61.6372   89.0377   11.4135 C.ar    1  UNL1        0.2499
      9 N          60.7715   89.5866   12.5087 N.ar    1  UNL1       -0.1071
     10 N          61.6642   90.0089   13.6377 N.ar    1  UNL1       -0.1072
     11 C          63.0817   89.7211   13.2402 C.ar    1  UNL1        0.2714
     12 O          63.0650   89.1209   11.8656 O.2     1  UNL1       -0.4156
     13 C          61.1789   86.6369    8.2868 C.ar    1  UNL1        0.1419
     14 C          60.2025   87.4250    7.4650 C.ar    1  UNL1        0.0738
     15 C          59.7043   88.7507    7.9593 C.ar    1  UNL1        0.1419
     16 C          60.1825   89.2883    9.2754 C.ar    1  UNL1        0.0418
     17 C          61.1589   88.5002   10.0973 C.ar    1  UNL1        0.0611
     18 C          61.6571   87.1745    9.6030 C.ar    1  UNL1        0.0418
     19 C          63.0525   84.8413    8.1632 C.3     1  UNL1        0.2525
     20 O          61.6771   85.3112    7.7925 O.3     1  UNL1       -0.4713
     21 O          58.7279   89.5388    7.1374 O.3     1  UNL1       -0.4713
     22 C          59.1555   90.1286    5.8261 C.3     1  UNL1        0.2525
     23 C          66.3817   93.0093   12.8050 C.3     1  UNL1        0.1082
     24 C          66.3511   94.3575   13.4618 C.3     1  UNL1        0.0270
     25 C          67.0109   92.8478   11.4530 C.ar    1  UNL1       -0.0038
     26 C          66.6954   93.8228   10.3576 C.ar    1  UNL1       -0.0027
     27 C          67.3245   93.6613    9.0056 C.ar    1  UNL1       -0.0003
     28 C          68.2692   92.5248    8.7489 C.ar    1  UNL1       -0.0000
     29 C          68.5847   91.5498    9.8442 C.ar    1  UNL1       -0.0003
     30 C          67.9556   91.7112   11.1963 C.ar    1  UNL1       -0.0027
     31 C          63.8235   88.8086   14.8671 C.3     1  UNL1        0.0849
     32 C          64.1427   87.4159   14.4106 C.ar    1  UNL1       -0.0177
     33 C          63.3520   86.7910   13.2997 C.ar    1  UNL1       -0.0041
     34 C          63.6712   85.3983   12.8432 C.ar    1  UNL1       -0.0003
     35 C          64.7812   84.6304   13.4977 C.ar    1  UNL1       -0.0000
     36 C          65.5719   85.2553   14.6086 C.ar    1  UNL1       -0.0003
     37 C          65.2527   86.6480   15.0651 C.ar    1  UNL1       -0.0041
@<TRIPOS>BOND
     1    19    20    1
     2    20    13    1
     3    13    14   ar
     4    14    15   ar
     5    15    21    1
     6    21    22    1
     7    15    16   ar
     8    16    17   ar
     9    17     8    1
    10     8     9   ar
    11     9    10   ar
    12    10    11   ar
    13    11     1    1
    14     1    31    1
    15    31    32    1
    16    32    33   ar
    17    33    34   ar
    18    34    35   ar
    19    35    36   ar
    20    36    37   ar
    21     1     2    1
    22     2     3    1
    23     3     4    2
    24     3     5   am
    25     5    23    1
    26    23    24    1
    27    23    25    1
    28    25    26   ar
    29    26    27   ar
    30    27    28   ar
    31    28    29   ar
    32    29    30   ar
    33     5     6   am
    34     6     7    2
    35    11    12   ar
    36    17    18   ar
    37    18    13   ar
    38    12     8   ar
    39     6     1    1
    40    37    32   ar
    41    30    25   ar
