@<TRIPOS>MOLECULE
*****
 35 38 0 0 0
SMALL
GASTEIGER

@<TRIPOS>ATOM
      1 N          63.3711   90.6097   11.8790 N.am    1  UNL1       -0.2438
      2 C          64.0947   90.5208   13.1899 C.3     1  UNL1        0.1009
      3 C          65.3087   91.3669   13.4354 C.3     1  UNL1        0.0661
      4 C          65.7990   92.3020   12.3700 C.3     1  UNL1        0.1578
      5 O          65.0754   92.3910   11.0590 O.3     1  UNL1       -0.4375
      6 C          63.8614   91.5448   10.8136 C.2     1  UNL1        0.4051
      7 O          63.1378   91.6337    9.5027 O.2     1  UNL1       -0.2262
      8 C          66.8156   92.5702   13.4400 C.ar    1  UNL1        0.0139
      9 C          68.1571   91.9014   13.3844 C.ar    1  UNL1        0.0014
     10 C          69.1737   92.1696   14.4544 C.ar    1  UNL1        0.0294
     11 C          68.8486   93.1065   15.5798 C.ar    1  UNL1        0.1401
     12 F          69.8651   93.3747   16.6497 F       1  UNL1       -0.2042
     13 C          67.5071   93.7753   15.6353 C.ar    1  UNL1        0.0294
     14 C          66.4905   93.5071   14.5653 C.ar    1  UNL1        0.0014
     15 C          60.8296   90.4130   11.3770 C.3     1  UNL1        0.0265
     16 C          62.1571   89.7635   11.6336 C.3     1  UNL1        0.1011
     17 C          62.2707   88.2678   11.6446 C.ar    1  UNL1       -0.0042
     18 C          63.1703   87.5913   12.6360 C.ar    1  UNL1       -0.0027
     19 C          63.2839   86.0957   12.6470 C.ar    1  UNL1       -0.0002
     20 C          62.4978   85.2766   11.6667 C.ar    1  UNL1        0.0014
     21 C          61.5981   85.9531   10.6753 C.ar    1  UNL1       -0.0002
     22 C          61.4846   87.4487   10.6643 C.ar    1  UNL1       -0.0027
     23 C          62.6113   83.7809   11.6777 C.ar    1  UNL1        0.0175
     24 C          63.2374   83.0677   10.5161 C.ar    1  UNL1        0.0064
     25 C          63.3510   81.5720   10.5272 C.ar    1  UNL1        0.0608
     26 C          62.8385   80.7896   11.6999 C.ar    1  UNL1        0.2610
     27 O          62.9521   79.2939   11.7110 O.2     1  UNL1       -0.2670
     28 N          62.2124   81.5029   12.8615 N.ar    1  UNL1       -0.2922
     29 C          61.7000   80.7205   14.0342 C.3     1  UNL1        0.1336
     30 C          62.0989   82.9985   12.8504 C.ar    1  UNL1        0.0783
     31 C          66.6425   93.3303   11.6761 C.3     1  UNL1        0.0471
     32 C          66.9389   93.1934   10.2122 C.3     1  UNL1        0.0357
     33 C          68.1648   92.4561    9.7608 C.3     1  UNL1        0.1373
     34 O          69.4904   93.1570    9.7241 O.3     1  UNL1       -0.3820
     35 H          69.4669   93.8583    9.0543 H       1  UNL1        0.2104
@<TRIPOS>BOND
     1    16    15    1
     2    16    17    1
     3    17    18   ar
     4    18    19   ar
     5    19    20   ar
     6    20    23    1
     7    23    24   ar
     8    24    25   ar
     9    25    26   ar
    10    26    27    2
    11    26    28   ar
    12    28    29    1
    13    28    30   ar
    14    20    21   ar
    15    21    22   ar
    16    16     1    1
    17     1     2    1
    18     2     3    1
    19     3     4    1
    20     4    31    1
    21    31    32    1
    22    32    33    1
    23    33    34    1
    24     4     8    1
    25     8     9   ar
    26     9    10   ar
    27    10    11   ar
    28    11    12    1
    29    11    13   ar
    30    13    14   ar
    31     4     5    1
    32     5     6    1
    33     6     7    2
    34    22    17   ar
    35     6     1   am
    36    30    23   ar
    37    14     8   ar
    38    34    35    1
