@<TRIPOS>MOLECULE
*****
 57 62 0 0 0
SMALL
GASTEIGER

@<TRIPOS>ATOM
      1 N          61.2705   85.6372    8.0437 N.3     1  UNL1       -0.1862
      2 C          62.1861   84.5225    8.4548 C.3     1  UNL1        0.1775
      3 C          62.9017   84.5867    9.7716 C.2     1  UNL1        0.2452
      4 O          63.8173   83.4719   10.1827 O.2     1  UNL1       -0.2732
      5 N          62.7017   85.7656   10.6772 N.am    1  UNL1       -0.2541
      6 C          63.4172   85.8298   11.9939 C.3     1  UNL1        0.1577
      7 C          63.2173   87.0087   12.8995 C.2     1  UNL1        0.2445
      8 O          63.9328   87.0729   14.2162 O.2     1  UNL1       -0.2731
      9 N          62.3016   88.1235   12.4883 N.am    1  UNL1       -0.2705
     10 C          61.5861   88.0593   11.1716 C.3     1  UNL1        0.1359
     11 C          61.7861   86.8803   10.2660 C.3     1  UNL1        0.1908
     12 N          61.0705   86.8161    8.9492 N.am    1  UNL1       -0.1863
     13 C          60.1549   87.9309    8.5381 C.2     1  UNL1        0.3191
     14 O          59.9549   89.1098    9.4437 O.2     1  UNL1       -0.2512
     15 N          59.4393   87.8667    7.2213 N.am    1  UNL1       -0.2836
     16 H          59.5706   87.0929    6.6270 H       1  UNL1        0.1513
     17 C          60.5549   85.5730    6.7269 C.3     1  UNL1        0.1188
     18 C          62.2487   84.2953    5.2273 C.2     1  UNL1       -0.0034
     19 C          60.8576   84.4650    5.7621 C.2     1  UNL1       -0.0071
     20 C          64.3328   84.7151   12.4051 C.3     1  UNL1        0.0556
     21 C          63.7662   83.4594   12.9985 C.ar    1  UNL1       -0.0198
     22 C          64.4941   82.1580   12.8354 C.ar    1  UNL1       -0.0011
     23 C          63.9275   80.9023   13.4288 C.ar    1  UNL1        0.0363
     24 C          62.6330   80.9479   14.1852 C.ar    1  UNL1        0.1337
     25 O          62.0665   79.6921   14.7786 O.3     1  UNL1       -0.5055
     26 C          61.9051   82.2493   14.3483 C.ar    1  UNL1        0.0363
     27 C          62.4717   83.5050   13.7549 C.ar    1  UNL1       -0.0011
     28 H          62.5212   78.8792   14.6767 H       1  UNL1        0.2922
     29 C          62.1016   89.3024   13.3939 C.3     1  UNL1        0.1217
     30 C          63.2398   90.2409   13.6659 C.ar    1  UNL1        0.0135
     31 C          63.8892   90.2602   15.0179 C.ar    1  UNL1       -0.0012
     32 C          65.0274   91.1986   15.2899 C.ar    1  UNL1       -0.0002
     33 C          65.5161   92.1176   14.2099 C.ar    1  UNL1        0.0016
     34 C          64.8667   92.0983   12.8579 C.ar    1  UNL1        0.0214
     35 C          65.1302   92.8823   11.6066 C.ar    1  UNL1        0.0719
     36 C          64.1549   92.4285   10.5612 C.ar    1  UNL1        0.0805
     37 N          63.2887   91.3640   11.1665 N.ar    1  UNL1       -0.3241
     38 C          62.1776   90.6321   10.4739 C.3     1  UNL1        0.1305
     39 C          63.7286   91.1599   12.5859 C.ar    1  UNL1        0.0577
     40 C          66.1840   93.9354   11.4314 C.2     1  UNL1        0.2474
     41 O          67.6124   93.6314   11.7742 O.2     1  UNL1       -0.2701
     42 N          65.8095   95.2924   10.9134 N.am    1  UNL1       -0.3002
     43 H          64.8720   95.4919   10.6885 H       1  UNL1        0.1498
     44 C          66.8632   96.3454   10.7382 C.3     1  UNL1        0.1014
     45 C          67.3099   96.7377    9.3611 C.3     1  UNL1        0.1307
     46 C          66.7791   96.0066    8.1638 C.2     1  UNL1        0.3187
     47 O          65.9902   96.7446    7.1232 O.2     1  UNL1       -0.2500
     48 O          67.0373   94.5373    8.0070 O.3     1  UNL1       -0.4485
     49 C          68.3328   93.9486    8.4813 C.3     1  UNL1        0.2086
     50 C          68.4137   92.4900    8.8220 C.3     1  UNL1        0.0513
     51 C          58.5238   88.9814    6.8102 C.3     1  UNL1        0.1177
     52 C          59.0226   90.0649    5.9007 C.ar    1  UNL1       -0.0025
     53 C          58.0564   91.0381    5.2931 C.ar    1  UNL1       -0.0026
     54 C          58.5552   92.1216    4.3837 C.ar    1  UNL1       -0.0003
     55 C          60.0204   92.2319    4.0818 C.ar    1  UNL1       -0.0000
     56 C          60.9867   91.2587    4.6893 C.ar    1  UNL1       -0.0003
     57 C          60.4878   90.1752    5.5988 C.ar    1  UNL1       -0.0026
@<TRIPOS>BOND
     1    18    19    2
     2    19    17    1
     3    17     1    1
     4     1     2    1
     5     2     3    1
     6     3     4    2
     7     3     5   am
     8     5     6    1
     9     6    20    1
    10    20    21    1
    11    21    22   ar
    12    22    23   ar
    13    23    24   ar
    14    24    25    1
    15    24    26   ar
    16    26    27   ar
    17     6     7    1
    18     7     8    2
    19     7     9   am
    20     9    29    1
    21    29    30    1
    22    30    31   ar
    23    31    32   ar
    24    32    33   ar
    25    33    34   ar
    26    34    35   ar
    27    35    40    1
    28    40    41    2
    29    40    42   am
    30    42    44    1
    31    44    45    1
    32    45    46    1
    33    46    47    2
    34    46    48    1
    35    48    49    1
    36    49    50    1
    37    35    36   ar
    38    36    37   ar
    39    37    38    1
    40    37    39   ar
    41     9    10    1
    42    11    10    1
    43    11    12    1
    44    12    13   am
    45    13    14    2
    46    13    15   am
    47    15    51    1
    48    51    52    1
    49    52    53   ar
    50    53    54   ar
    51    54    55   ar
    52    55    56   ar
    53    56    57   ar
    54    12     1    1
    55    57    52   ar
    56    11     5    1
    57    27    21   ar
    58    39    30   ar
    59    39    34   ar
    60    25    28    1
    61    42    43    1
    62    15    16    1
@<TRIPOS>MOLECULE
*****
 57 62 0 0 0
SMALL
GASTEIGER

@<TRIPOS>ATOM
      1 N          62.8709   84.0295    9.4619 N.3     1  UNL1       -0.1862
      2 C          62.1820   84.1027    8.1315 C.3     1  UNL1        0.1775
      3 C          61.3687   85.3111    7.7734 C.2     1  UNL1        0.2452
      4 O          60.6798   85.3842    6.4429 O.2     1  UNL1       -0.2732
      5 N          61.2443   86.4464    8.7458 N.am    1  UNL1       -0.2541
      6 C          60.4310   87.6549    8.3878 C.3     1  UNL1        0.1577
      7 C          60.3066   88.7902    9.3601 C.2     1  UNL1        0.2445
      8 O          59.4934   89.9987    9.0021 O.2     1  UNL1       -0.2731
      9 N          60.9955   88.7171   10.6906 N.am    1  UNL1       -0.2705
     10 C          61.8088   87.5086   11.0487 C.3     1  UNL1        0.1359
     11 C          61.9332   86.3733   10.0762 C.3     1  UNL1        0.1908
     12 N          62.7465   85.1648   10.4343 N.am    1  UNL1       -0.1863
     13 C          63.4354   85.0917   11.7648 C.2     1  UNL1        0.3191
     14 O          63.3110   86.2270   12.7371 O.2     1  UNL1       -0.2512
     15 N          64.2487   83.8833   12.1228 N.am    1  UNL1       -0.2836
     16 H          64.3303   83.1381   11.4846 H       1  UNL1        0.1513
     17 C          63.6842   82.8211    9.8199 C.3     1  UNL1        0.1188
     18 C          62.7477   81.2677   11.6800 C.2     1  UNL1       -0.0034
     19 C          62.9996   81.5505   10.2287 C.2     1  UNL1       -0.0071
     20 C          59.7422   87.7280    7.0573 C.3     1  UNL1        0.0556
     21 C          59.5395   89.0559    6.3897 C.ar    1  UNL1       -0.0198
     22 C          58.1626   89.6422    6.2886 C.ar    1  UNL1       -0.0011
     23 C          57.9600   90.9700    5.6209 C.ar    1  UNL1        0.0363
     24 C          59.1343   91.7115    5.0543 C.ar    1  UNL1        0.1337
     25 O          58.9317   93.0394    4.3866 O.3     1  UNL1       -0.5055
     26 C          60.5113   91.1253    5.1554 C.ar    1  UNL1        0.0363
     27 C          60.7139   89.7974    5.8231 C.ar    1  UNL1       -0.0011
     28 H          58.0715   93.4056    4.3235 H       1  UNL1        0.2922
     29 C          60.8711   89.8524   11.6630 C.3     1  UNL1        0.1217
     30 C          62.0224   90.2023   12.5587 C.ar    1  UNL1        0.0135
     31 C          61.9982   89.7993   14.0033 C.ar    1  UNL1       -0.0012
     32 C          63.1493   90.1492   14.8990 C.ar    1  UNL1       -0.0002
     33 C          64.3248   90.9022   14.3501 C.ar    1  UNL1        0.0016
     34 C          64.3490   91.3052   12.9054 C.ar    1  UNL1        0.0214
     35 C          65.3635   92.0481   12.0876 C.ar    1  UNL1        0.0719
     36 C          64.8393   92.1573   10.6864 C.ar    1  UNL1        0.0805
     37 N          63.5009   91.4819   10.6383 N.ar    1  UNL1       -0.3241
     38 C          62.6201   91.3553    9.4308 C.3     1  UNL1        0.1305
     39 C          63.1978   90.9553   12.0097 C.ar    1  UNL1        0.0577
     40 C          66.6725   92.5871   12.5838 C.2     1  UNL1        0.2474
     41 O          66.9762   94.0508   12.4599 O.2     1  UNL1       -0.2701
     42 N          67.6777   91.6624   13.2039 N.am    1  UNL1       -0.3002
     43 H          67.4784   90.7018   13.2851 H       1  UNL1        0.1498
     44 C          68.9866   92.2014   13.7001 C.3     1  UNL1        0.1014
     45 C          69.1492   92.5618   15.1470 C.3     1  UNL1        0.1307
     46 C          68.2803   93.6206   15.7584 C.2     1  UNL1        0.3187
     47 O          68.9045   94.8133   16.4200 O.2     1  UNL1       -0.2500
     48 O          66.7871   93.4866   15.7082 O.3     1  UNL1       -0.4485
     49 C          66.1074   92.3823   16.4621 C.3     1  UNL1        0.2086
     50 C          64.7837   92.6294   17.1229 C.3     1  UNL1        0.0513
     51 C          64.9376   83.8101   13.4532 C.3     1  UNL1        0.1177
     52 C          64.3396   84.4952   14.6461 C.ar    1  UNL1       -0.0025
     53 C          63.1908   83.8644   15.3757 C.ar    1  UNL1       -0.0026
     54 C          62.5929   84.5495   16.5686 C.ar    1  UNL1       -0.0003
     55 C          63.1436   85.8655   17.0319 C.ar    1  UNL1       -0.0000
     56 C          64.2925   86.4965   16.3023 C.ar    1  UNL1       -0.0003
     57 C          64.8904   85.8113   15.1094 C.ar    1  UNL1       -0.0026
@<TRIPOS>BOND
     1    18    19    2
     2    19    17    1
     3    17     1    1
     4     1     2    1
     5     2     3    1
     6     3     4    2
     7     3     5   am
     8     5     6    1
     9     6    20    1
    10    20    21    1
    11    21    22   ar
    12    22    23   ar
    13    23    24   ar
    14    24    25    1
    15    24    26   ar
    16    26    27   ar
    17     6     7    1
    18     7     8    2
    19     7     9   am
    20     9    29    1
    21    29    30    1
    22    30    31   ar
    23    31    32   ar
    24    32    33   ar
    25    33    34   ar
    26    34    35   ar
    27    35    40    1
    28    40    41    2
    29    40    42   am
    30    42    44    1
    31    44    45    1
    32    45    46    1
    33    46    47    2
    34    46    48    1
    35    48    49    1
    36    49    50    1
    37    35    36   ar
    38    36    37   ar
    39    37    38    1
    40    37    39   ar
    41     9    10    1
    42    11    10    1
    43    11    12    1
    44    12    13   am
    45    13    14    2
    46    13    15   am
    47    15    51    1
    48    51    52    1
    49    52    53   ar
    50    53    54   ar
    51    54    55   ar
    52    55    56   ar
    53    56    57   ar
    54    12     1    1
    55    57    52   ar
    56    11     5    1
    57    27    21   ar
    58    39    30   ar
    59    39    34   ar
    60    25    28    1
    61    42    43    1
    62    15    16    1
