@<TRIPOS>MOLECULE
*****
 29 32 0 0 0
SMALL
GASTEIGER

@<TRIPOS>ATOM
      1 C          63.4848   89.3411   12.9358 C.ar    1  UNL1        0.0004
      2 C          62.7809   88.5335   11.8859 C.ar    1  UNL1       -0.0024
      3 C          62.7977   87.0352   11.9557 C.ar    1  UNL1       -0.0003
      4 C          63.5185   86.3446   13.0753 C.ar    1  UNL1        0.0001
      5 C          64.2224   87.1522   14.1252 C.ar    1  UNL1       -0.0003
      6 C          64.2056   88.6505   14.0554 C.ar    1  UNL1       -0.0024
      7 C          63.5353   84.8463   13.1451 C.ar    1  UNL1        0.0030
      8 C          63.8740   84.0424   11.9249 C.ar    1  UNL1        0.0001
      9 C          63.8909   82.5441   11.9946 C.ar    1  UNL1        0.0000
     10 C          63.5689   81.8497   13.2847 C.ar    1  UNL1        0.0001
     11 C          63.2301   82.6536   14.5049 C.ar    1  UNL1        0.0031
     12 C          63.2133   84.1519   14.4351 C.ar    1  UNL1        0.0371
     13 C          62.8746   84.9558   15.6554 C.ar    1  UNL1        0.1806
     14 N          61.4958   85.3436   16.1010 N.ar    1  UNL1       -0.1084
     15 N          61.6243   86.1406   17.3652 N.ar    1  UNL1       -0.0229
     16 N          63.0825   86.2453   17.7011 N.ar    1  UNL1       -0.0464
     17 N          63.8552   85.5131   16.6443 N.ar    1  UNL1       -0.2388
     18 H          64.8341   85.4154   16.6064 H       1  UNL1        0.1923
     19 C          63.4680   90.8394   12.8660 C.3     1  UNL1        0.1339
     20 C          65.8397   91.9436   13.4144 C.ar    1  UNL1        0.1216
     21 N          66.8732   92.6859   12.6201 N.ar    1  UNL1       -0.2195
     22 C          66.3853   92.7878   11.2053 C.ar    1  UNL1        0.1568
     23 CL         67.1059   93.4523   10.0698 Cl      1  UNL1       -0.0597
     24 C          65.0504   92.1085   11.1252 C.ar    1  UNL1        0.1082
     25 N          64.7132   91.5868   12.4905 N.ar    1  UNL1       -0.3087
     26 C          65.9190   91.6157   14.8759 C.3     1  UNL1        0.0640
     27 C          66.5666   92.5785   15.8265 C.3     1  UNL1        0.0079
     28 C          68.9315   93.6541   15.8137 C.3     1  UNL1        0.0000
     29 C          68.0380   92.4844   16.1026 C.3     1  UNL1        0.0005
@<TRIPOS>BOND
     1    28    29    1
     2    29    27    1
     3    27    26    1
     4    26    20    1
     5    20    21   ar
     6    21    22   ar
     7    22    23    1
     8    22    24   ar
     9    24    25   ar
    10    25    19    1
    11    19     1    1
    12     1     2   ar
    13     2     3   ar
    14     3     4   ar
    15     4     7    1
    16     7     8   ar
    17     8     9   ar
    18     9    10   ar
    19    10    11   ar
    20    11    12   ar
    21    12    13    1
    22    13    14   ar
    23    14    15   ar
    24    15    16   ar
    25    16    17   ar
    26     4     5   ar
    27     5     6   ar
    28    25    20   ar
    29     6     1   ar
    30    12     7   ar
    31    17    13   ar
    32    17    18    1
@<TRIPOS>MOLECULE
*****
 29 32 0 0 0
SMALL
GASTEIGER

@<TRIPOS>ATOM
      1 C          63.4892   89.1683   12.8740 C.ar    1  UNL1        0.0004
      2 C          64.2062   88.5010   14.0100 C.ar    1  UNL1       -0.0024
      3 C          64.2238   87.0045   14.1100 C.ar    1  UNL1       -0.0003
      4 C          63.5244   86.1753   13.0740 C.ar    1  UNL1        0.0001
      5 C          62.8074   86.8426   11.9381 C.ar    1  UNL1       -0.0003
      6 C          62.7898   88.3391   11.8380 C.ar    1  UNL1       -0.0024
      7 C          63.5420   84.6787   13.1741 C.ar    1  UNL1        0.0030
      8 C          63.9789   83.8536   12.0001 C.ar    1  UNL1        0.0001
      9 C          63.9966   82.3570   12.1002 C.ar    1  UNL1        0.0000
     10 C          63.5773   81.6856   13.3743 C.ar    1  UNL1        0.0001
     11 C          63.1403   82.5107   14.5484 C.ar    1  UNL1        0.0031
     12 C          63.1227   84.0072   14.4482 C.ar    1  UNL1        0.0371
     13 C          62.6858   84.8324   15.6223 C.ar    1  UNL1        0.1806
     14 N          63.5572   85.2812   16.7577 N.ar    1  UNL1       -0.1084
     15 N          62.7107   86.0798   17.7041 N.ar    1  UNL1       -0.0229
     16 N          61.3160   86.1246   17.1535 N.ar    1  UNL1       -0.0464
     17 N          61.3007   85.3537   15.8669 N.ar    1  UNL1       -0.2388
     18 H          60.5188   85.2143   15.2852 H       1  UNL1        0.1923
     19 C          63.4716   90.6649   12.7739 C.3     1  UNL1        0.1339
     20 C          65.5153   92.3723   12.5432 C.ar    1  UNL1        0.1216
     21 N          66.5108   92.9695   13.4931 N.ar    1  UNL1       -0.2195
     22 C          66.2226   92.4335   14.8641 C.ar    1  UNL1        0.1568
     23 CL         66.9758   92.7674   16.1176 Cl      1  UNL1       -0.0597
     24 C          65.0491   91.5049   14.7615 C.ar    1  UNL1        0.1082
     25 N          64.6119   91.4671   13.3272 N.ar    1  UNL1       -0.3087
     26 C          65.4370   92.6342   11.0683 C.3     1  UNL1        0.0640
     27 C          66.6526   93.1013   10.3240 C.3     1  UNL1        0.0079
     28 C          68.7703   92.4271    8.9784 C.3     1  UNL1        0.0000
     29 C          67.7942   92.1580   10.0850 C.3     1  UNL1        0.0005
@<TRIPOS>BOND
     1    28    29    1
     2    29    27    1
     3    27    26    1
     4    26    20    1
     5    20    21   ar
     6    21    22   ar
     7    22    23    1
     8    22    24   ar
     9    24    25   ar
    10    25    19    1
    11    19     1    1
    12     1     2   ar
    13     2     3   ar
    14     3     4   ar
    15     4     7    1
    16     7     8   ar
    17     8     9   ar
    18     9    10   ar
    19    10    11   ar
    20    11    12   ar
    21    12    13    1
    22    13    14   ar
    23    14    15   ar
    24    15    16   ar
    25    16    17   ar
    26     4     5   ar
    27     5     6   ar
    28    25    20   ar
    29     6     1   ar
    30    12     7   ar
    31    17    13   ar
    32    17    18    1
@<TRIPOS>MOLECULE
*****
 29 32 0 0 0
SMALL
GASTEIGER

@<TRIPOS>ATOM
      1 C          63.4143   84.2532   10.9558 C.ar    1  UNL1        0.0004
      2 C          62.3493   85.0037   11.6992 C.ar    1  UNL1       -0.0024
      3 C          61.4757   85.9828   10.9724 C.ar    1  UNL1       -0.0003
      4 C          61.6671   86.2113    9.5023 C.ar    1  UNL1        0.0001
      5 C          62.7320   85.4608    8.7590 C.ar    1  UNL1       -0.0003
      6 C          63.6056   84.4818    9.4857 C.ar    1  UNL1       -0.0024
      7 C          60.7934   87.1905    8.7756 C.ar    1  UNL1        0.0030
      8 C          60.0117   86.7498    7.5736 C.ar    1  UNL1        0.0001
      9 C          59.1380   87.7290    6.8469 C.ar    1  UNL1        0.0000
     10 C          59.0461   89.1487    7.3222 C.ar    1  UNL1        0.0001
     11 C          59.8278   89.5893    8.5243 C.ar    1  UNL1        0.0031
     12 C          60.7014   88.6102    9.2509 C.ar    1  UNL1        0.0371
     13 C          61.4832   89.0508   10.4530 C.ar    1  UNL1        0.1806
     14 N          62.9159   89.4947   10.4587 N.ar    1  UNL1       -0.1084
     15 N          63.2876   89.8431   11.8696 N.ar    1  UNL1       -0.0229
     16 N          62.0845   89.6144   12.7358 N.ar    1  UNL1       -0.0464
     17 N          60.9693   89.1248   11.8603 N.ar    1  UNL1       -0.2388
     18 H          60.0598   88.8927   12.1572 H       1  UNL1        0.1923
     19 C          64.2880   83.2741   11.6826 C.3     1  UNL1        0.1339
     20 C          63.7146   82.3371   14.1194 C.ar    1  UNL1        0.1216
     21 N          62.9817   81.1409   14.6505 N.ar    1  UNL1       -0.2195
     22 C          62.4909   80.3409   13.4803 C.ar    1  UNL1        0.1568
     23 CL         61.7079   79.0635   13.5519 Cl      1  UNL1       -0.0597
     24 C          62.9205   81.0426   12.2262 C.ar    1  UNL1        0.1082
     25 N          63.6768   82.2763   12.6211 N.ar    1  UNL1       -0.3087
     26 C          64.3702   83.4062   14.9422 C.3     1  UNL1        0.0640
     27 C          63.8340   84.8069   14.9167 C.3     1  UNL1        0.0079
     28 C          64.2947   87.3424   14.5869 C.3     1  UNL1        0.0000
     29 C          64.7777   85.9721   14.9596 C.3     1  UNL1        0.0005
@<TRIPOS>BOND
     1    28    29    1
     2    29    27    1
     3    27    26    1
     4    26    20    1
     5    20    21   ar
     6    21    22   ar
     7    22    23    1
     8    22    24   ar
     9    24    25   ar
    10    25    19    1
    11    19     1    1
    12     1     2   ar
    13     2     3   ar
    14     3     4   ar
    15     4     7    1
    16     7     8   ar
    17     8     9   ar
    18     9    10   ar
    19    10    11   ar
    20    11    12   ar
    21    12    13    1
    22    13    14   ar
    23    14    15   ar
    24    15    16   ar
    25    16    17   ar
    26     4     5   ar
    27     5     6   ar
    28    25    20   ar
    29     6     1   ar
    30    12     7   ar
    31    17    13   ar
    32    17    18    1
@<TRIPOS>MOLECULE
*****
 29 32 0 0 0
SMALL
GASTEIGER

@<TRIPOS>ATOM
      1 C          62.9977   89.0043   12.3079 C.ar    1  UNL1        0.0004
      2 C          63.7982   88.2870   13.3541 C.ar    1  UNL1       -0.0024
      3 C          63.8545   86.7881   13.3584 C.ar    1  UNL1       -0.0003
      4 C          63.1104   86.0065   12.3165 C.ar    1  UNL1        0.0001
      5 C          62.3099   86.7239   11.2703 C.ar    1  UNL1       -0.0003
      6 C          62.2536   88.2228   11.2660 C.ar    1  UNL1       -0.0024
      7 C          63.1667   84.5075   12.3209 C.ar    1  UNL1        0.0030
      8 C          63.3013   83.7583   11.0285 C.ar    1  UNL1        0.0001
      9 C          63.3576   82.2593   11.0328 C.ar    1  UNL1        0.0000
     10 C          63.2794   81.5097   12.3297 C.ar    1  UNL1        0.0001
     11 C          63.1448   82.2590   13.6222 C.ar    1  UNL1        0.0031
     12 C          63.0885   83.7579   13.6178 C.ar    1  UNL1        0.0371
     13 C          62.9539   84.5072   14.9103 C.ar    1  UNL1        0.1806
     14 N          61.6666   84.9199   15.5602 N.ar    1  UNL1       -0.1084
     15 N          62.0001   85.6431   16.8314 N.ar    1  UNL1       -0.0229
     16 N          63.4936   85.6774   16.9670 N.ar    1  UNL1       -0.0464
     17 N          64.0831   84.9753   15.7797 N.ar    1  UNL1       -0.2388
     18 H          65.0426   84.8447   15.6023 H       1  UNL1        0.1923
     19 C          62.9414   90.5033   12.3035 C.3     1  UNL1        0.1339
     20 C          65.3130   91.4922   13.0402 C.ar    1  UNL1        0.1216
     21 N          66.3514   92.3555   12.3872 N.ar    1  UNL1       -0.2195
     22 C          65.8698   92.6969   11.0082 C.ar    1  UNL1        0.1568
     23 CL         66.5966   93.5422   10.0046 Cl      1  UNL1       -0.0597
     24 C          64.5338   92.0446   10.8090 C.ar    1  UNL1        0.1082
     25 N          64.1897   91.3001   12.0649 N.ar    1  UNL1       -0.3087
     26 C          65.3852   90.9213   14.4255 C.3     1  UNL1        0.0640
     27 C          64.9329   91.7396   15.5984 C.3     1  UNL1        0.0079
     28 C          63.3319   89.8376   16.3528 C.3     1  UNL1        0.0000
     29 C          63.7995   91.2591   16.4556 C.3     1  UNL1        0.0005
@<TRIPOS>BOND
     1    28    29    1
     2    29    27    1
     3    27    26    1
     4    26    20    1
     5    20    21   ar
     6    21    22   ar
     7    22    23    1
     8    22    24   ar
     9    24    25   ar
    10    25    19    1
    11    19     1    1
    12     1     2   ar
    13     2     3   ar
    14     3     4   ar
    15     4     7    1
    16     7     8   ar
    17     8     9   ar
    18     9    10   ar
    19    10    11   ar
    20    11    12   ar
    21    12    13    1
    22    13    14   ar
    23    14    15   ar
    24    15    16   ar
    25    16    17   ar
    26     4     5   ar
    27     5     6   ar
    28    25    20   ar
    29     6     1   ar
    30    12     7   ar
    31    17    13   ar
    32    17    18    1
@<TRIPOS>MOLECULE
*****
 29 32 0 0 0
SMALL
GASTEIGER

@<TRIPOS>ATOM
      1 C          63.9390   89.9426   13.8681 C.ar    1  UNL1        0.0004
      2 C          64.4063   88.9421   14.8831 C.ar    1  UNL1       -0.0024
      3 C          64.2774   87.4740   14.6037 C.ar    1  UNL1       -0.0003
      4 C          63.6811   87.0065   13.3091 C.ar    1  UNL1        0.0001
      5 C          63.2138   88.0071   12.2940 C.ar    1  UNL1       -0.0003
      6 C          63.3427   89.4751   12.5735 C.ar    1  UNL1       -0.0024
      7 C          63.5522   85.5384   13.0296 C.ar    1  UNL1        0.0030
      8 C          64.3084   84.5470   13.8634 C.ar    1  UNL1        0.0001
      9 C          64.1794   83.0789   13.5840 C.ar    1  UNL1        0.0000
     10 C          63.2943   82.6022   12.4707 C.ar    1  UNL1        0.0001
     11 C          62.5381   83.5937   11.6369 C.ar    1  UNL1        0.0031
     12 C          62.6671   85.0618   11.9164 C.ar    1  UNL1        0.0371
     13 C          61.9109   86.0533   11.0826 C.ar    1  UNL1        0.1806
     14 N          62.2463   86.4627    9.6791 N.ar    1  UNL1       -0.1084
     15 N          61.2292   87.4718    9.2350 N.ar    1  UNL1       -0.0229
     16 N          60.2652   87.6861   10.3641 N.ar    1  UNL1       -0.0464
     17 N          60.6865   86.8094   11.5059 N.ar    1  UNL1       -0.2388
     18 H          60.2381   86.7420   12.3798 H       1  UNL1        0.1923
     19 C          64.0679   91.4108   14.1475 C.3     1  UNL1        0.1339
     20 C          66.2207   92.4365   12.9397 C.ar    1  UNL1        0.1216
     21 N          67.5063   93.0521   13.4067 N.ar    1  UNL1       -0.2195
     22 C          67.5015   93.0536   14.9067 C.ar    1  UNL1        0.1568
     23 CL         68.5937   93.5778   15.7913 Cl      1  UNL1       -0.0597
     24 C          66.2129   92.4390   15.3668 C.ar    1  UNL1        0.1082
     25 N          65.4213   92.0575   14.1511 N.ar    1  UNL1       -0.3087
     26 C          65.8070   92.2351   11.5120 C.3     1  UNL1        0.0640
     27 C          66.0677   93.3085   10.4972 C.3     1  UNL1        0.0079
     28 C          68.2223   92.1447    9.6292 C.3     1  UNL1        0.0000
     29 C          67.4004   93.3860    9.8131 C.3     1  UNL1        0.0005
@<TRIPOS>BOND
     1    28    29    1
     2    29    27    1
     3    27    26    1
     4    26    20    1
     5    20    21   ar
     6    21    22   ar
     7    22    23    1
     8    22    24   ar
     9    24    25   ar
    10    25    19    1
    11    19     1    1
    12     1     2   ar
    13     2     3   ar
    14     3     4   ar
    15     4     7    1
    16     7     8   ar
    17     8     9   ar
    18     9    10   ar
    19    10    11   ar
    20    11    12   ar
    21    12    13    1
    22    13    14   ar
    23    14    15   ar
    24    15    16   ar
    25    16    17   ar
    26     4     5   ar
    27     5     6   ar
    28    25    20   ar
    29     6     1   ar
    30    12     7   ar
    31    17    13   ar
    32    17    18    1
@<TRIPOS>MOLECULE
*****
 29 32 0 0 0
SMALL
GASTEIGER

@<TRIPOS>ATOM
      1 C          63.7899   89.9776   13.1934 C.ar    1  UNL1        0.0004
      2 C          64.3750   89.3087   14.4017 C.ar    1  UNL1       -0.0024
      3 C          64.3268   87.8149   14.5291 C.ar    1  UNL1       -0.0003
      4 C          63.6934   86.9900   13.4482 C.ar    1  UNL1        0.0001
      5 C          63.1082   87.6589   12.2399 C.ar    1  UNL1       -0.0003
      6 C          63.1565   89.1527   12.1125 C.ar    1  UNL1       -0.0024
      7 C          63.6452   85.4962   13.5757 C.ar    1  UNL1        0.0030
      8 C          64.3062   84.8211   14.7407 C.ar    1  UNL1        0.0001
      9 C          64.2580   83.3273   14.8681 C.ar    1  UNL1        0.0000
     10 C          63.5487   82.5086   13.8305 C.ar    1  UNL1        0.0001
     11 C          62.8876   83.1837   12.6655 C.ar    1  UNL1        0.0031
     12 C          62.9359   84.6775   12.5381 C.ar    1  UNL1        0.0371
     13 C          62.2748   85.3526   11.3730 C.ar    1  UNL1        0.1806
     14 N          62.7345   85.2996    9.9462 N.ar    1  UNL1       -0.1084
     15 N          61.7818   86.1135    9.1217 N.ar    1  UNL1       -0.0229
     16 N          60.7332   86.6696   10.0389 N.ar    1  UNL1       -0.0464
     17 N          61.0379   86.1993   11.4303 N.ar    1  UNL1       -0.2388
     18 H          60.5175   86.4095   12.2391 H       1  UNL1        0.1923
     19 C          63.8381   91.4714   13.0659 C.3     1  UNL1        0.1339
     20 C          66.2305   92.6549   13.2100 C.ar    1  UNL1        0.1216
     21 N          67.1887   93.2350   12.2124 N.ar    1  UNL1       -0.2195
     22 C          66.5903   93.0727   10.8464 C.ar    1  UNL1        0.1568
     23 CL         67.2110   93.5135    9.5539 Cl      1  UNL1       -0.0597
     24 C          65.2624   92.3923   11.0000 C.ar    1  UNL1        0.1082
     25 N          65.0400   92.1341   12.4607 N.ar    1  UNL1       -0.3087
     26 C          66.4282   92.6045   14.6961 C.3     1  UNL1        0.0640
     27 C          67.5245   91.7627   15.2787 C.3     1  UNL1        0.0079
     28 C          68.8194   93.9130   15.9491 C.3     1  UNL1        0.0000
     29 C          68.7265   92.4169   15.8931 C.3     1  UNL1        0.0005
@<TRIPOS>BOND
     1    28    29    1
     2    29    27    1
     3    27    26    1
     4    26    20    1
     5    20    21   ar
     6    21    22   ar
     7    22    23    1
     8    22    24   ar
     9    24    25   ar
    10    25    19    1
    11    19     1    1
    12     1     2   ar
    13     2     3   ar
    14     3     4   ar
    15     4     7    1
    16     7     8   ar
    17     8     9   ar
    18     9    10   ar
    19    10    11   ar
    20    11    12   ar
    21    12    13    1
    22    13    14   ar
    23    14    15   ar
    24    15    16   ar
    25    16    17   ar
    26     4     5   ar
    27     5     6   ar
    28    25    20   ar
    29     6     1   ar
    30    12     7   ar
    31    17    13   ar
    32    17    18    1
@<TRIPOS>MOLECULE
*****
 29 32 0 0 0
SMALL
GASTEIGER

@<TRIPOS>ATOM
      1 C          61.6762   90.0054   10.7046 C.ar    1  UNL1        0.0004
      2 C          61.6464   89.8978   12.2004 C.ar    1  UNL1       -0.0024
      3 C          62.7338   90.5274   13.0194 C.ar    1  UNL1       -0.0003
      4 C          63.8511   91.2648   12.3427 C.ar    1  UNL1        0.0001
      5 C          63.8809   91.3725   10.8469 C.ar    1  UNL1       -0.0003
      6 C          62.7935   90.7428   10.0279 C.ar    1  UNL1       -0.0024
      7 C          64.9385   91.8945   13.1619 C.ar    1  UNL1        0.0030
      8 C          65.7198   93.0499   12.6100 C.ar    1  UNL1        0.0001
      9 C          66.8073   93.6796   13.4291 C.ar    1  UNL1        0.0000
     10 C          67.1134   93.1539   14.8002 C.ar    1  UNL1        0.0001
     11 C          66.3320   91.9985   15.3522 C.ar    1  UNL1        0.0031
     12 C          65.2446   91.3688   14.5330 C.ar    1  UNL1        0.0371
     13 C          64.4633   90.2134   15.0849 C.ar    1  UNL1        0.1806
     14 N          63.4052   90.2908   16.1453 N.ar    1  UNL1       -0.1084
     15 N          62.8908   88.9030   16.3890 N.ar    1  UNL1       -0.0229
     16 N          63.6311   87.9678   15.4793 N.ar    1  UNL1       -0.0464
     17 N          64.6029   88.7777   14.6734 N.ar    1  UNL1       -0.2388
     18 H          65.2235   88.4284   13.9936 H       1  UNL1        0.1923
     19 C          60.5887   89.3757    9.8854 C.3     1  UNL1        0.1339
     20 C          60.1645   87.6681    7.8732 C.ar    1  UNL1        0.1216
     21 N          60.7461   86.3480    7.4619 N.ar    1  UNL1       -0.2195
     22 C          61.7991   85.9735    8.4624 C.ar    1  UNL1        0.1568
     23 CL         62.6360   84.7289    8.4376 Cl      1  UNL1       -0.0597
     24 C          61.8683   87.0622    9.4920 C.ar    1  UNL1        0.1082
     25 N          60.8581   88.1094    9.1279 N.ar    1  UNL1       -0.3087
     26 C          59.0798   88.4155    7.1558 C.3     1  UNL1        0.0640
     27 C          59.4215   89.6107    6.3163 C.3     1  UNL1        0.0079
     28 C          58.6677   91.6508    4.8951 C.3     1  UNL1        0.0000
     29 C          58.3284   90.4814    5.7711 C.3     1  UNL1        0.0005
@<TRIPOS>BOND
     1    28    29    1
     2    29    27    1
     3    27    26    1
     4    26    20    1
     5    20    21   ar
     6    21    22   ar
     7    22    23    1
     8    22    24   ar
     9    24    25   ar
    10    25    19    1
    11    19     1    1
    12     1     2   ar
    13     2     3   ar
    14     3     4   ar
    15     4     7    1
    16     7     8   ar
    17     8     9   ar
    18     9    10   ar
    19    10    11   ar
    20    11    12   ar
    21    12    13    1
    22    13    14   ar
    23    14    15   ar
    24    15    16   ar
    25    16    17   ar
    26     4     5   ar
    27     5     6   ar
    28    25    20   ar
    29     6     1   ar
    30    12     7   ar
    31    17    13   ar
    32    17    18    1
@<TRIPOS>MOLECULE
*****
 29 32 0 0 0
SMALL
GASTEIGER

@<TRIPOS>ATOM
      1 C          61.5977   89.4780   10.6699 C.ar    1  UNL1        0.0004
      2 C          62.7412   90.1205    9.9422 C.ar    1  UNL1       -0.0024
      3 C          63.7820   90.8842   10.7060 C.ar    1  UNL1       -0.0003
      4 C          63.6793   91.0053   12.1976 C.ar    1  UNL1        0.0001
      5 C          62.5358   90.3628   12.9253 C.ar    1  UNL1       -0.0003
      6 C          61.4951   89.5991   12.1614 C.ar    1  UNL1       -0.0024
      7 C          64.7202   91.7690   12.9615 C.ar    1  UNL1        0.0030
      8 C          65.4243   92.9264   12.3177 C.ar    1  UNL1        0.0001
      9 C          66.4652   93.6901   13.0815 C.ar    1  UNL1        0.0000
     10 C          66.8019   93.2963   14.4892 C.ar    1  UNL1        0.0001
     11 C          66.0977   92.1388   15.1330 C.ar    1  UNL1        0.0031
     12 C          65.0569   91.3752   14.3692 C.ar    1  UNL1        0.0371
     13 C          64.3527   90.2177   15.0130 C.ar    1  UNL1        0.1806
     14 N          63.3249   90.3061   16.1019 N.ar    1  UNL1       -0.1084
     15 N          62.8897   88.9117   16.4428 N.ar    1  UNL1       -0.0229
     16 N          63.6485   87.9615   15.5645 N.ar    1  UNL1       -0.0464
     17 N          64.5527   88.7687   14.6809 N.ar    1  UNL1       -0.2388
     18 H          65.1692   88.4104   14.0021 H       1  UNL1        0.1923
     19 C          60.5569   88.7143    9.9060 C.3     1  UNL1        0.1339
     20 C          61.7413   86.3189    9.8433 C.ar    1  UNL1        0.1216
     21 N          61.8455   85.2132    8.8350 N.ar    1  UNL1       -0.2195
     22 C          61.0828   85.6281    7.6117 C.ar    1  UNL1        0.1568
     23 CL         60.9236   84.8223    6.3566 Cl      1  UNL1       -0.0597
     24 C          60.5072   86.9901    7.8641 C.ar    1  UNL1        0.1082
     25 N          60.9142   87.4170    9.2432 N.ar    1  UNL1       -0.3087
     26 C          62.3563   86.3252   11.2114 C.3     1  UNL1        0.0640
     27 C          62.3423   85.0788   12.0457 C.3     1  UNL1        0.0079
     28 C          63.7041   83.0815   11.0938 C.3     1  UNL1        0.0000
     29 C          63.5516   84.1924   12.0901 C.3     1  UNL1        0.0005
@<TRIPOS>BOND
     1    28    29    1
     2    29    27    1
     3    27    26    1
     4    26    20    1
     5    20    21   ar
     6    21    22   ar
     7    22    23    1
     8    22    24   ar
     9    24    25   ar
    10    25    19    1
    11    19     1    1
    12     1     2   ar
    13     2     3   ar
    14     3     4   ar
    15     4     7    1
    16     7     8   ar
    17     8     9   ar
    18     9    10   ar
    19    10    11   ar
    20    11    12   ar
    21    12    13    1
    22    13    14   ar
    23    14    15   ar
    24    15    16   ar
    25    16    17   ar
    26     4     5   ar
    27     5     6   ar
    28    25    20   ar
    29     6     1   ar
    30    12     7   ar
    31    17    13   ar
    32    17    18    1
@<TRIPOS>MOLECULE
*****
 29 32 0 0 0
SMALL
GASTEIGER

@<TRIPOS>ATOM
      1 C          61.2499   89.0813   10.8207 C.ar    1  UNL1        0.0004
      2 C          62.5057   89.3984   10.0643 C.ar    1  UNL1       -0.0024
      3 C          63.5904   90.2040   10.7157 C.ar    1  UNL1       -0.0003
      4 C          63.4193   90.6926   12.1235 C.ar    1  UNL1        0.0001
      5 C          62.1634   90.3755   12.8799 C.ar    1  UNL1       -0.0003
      6 C          61.0787   89.5699   12.2286 C.ar    1  UNL1       -0.0024
      7 C          64.5040   91.4983   12.7749 C.ar    1  UNL1        0.0030
      8 C          65.1490   92.6289   12.0295 C.ar    1  UNL1        0.0001
      9 C          66.2338   93.4346   12.6808 C.ar    1  UNL1        0.0000
     10 C          66.6736   93.1095   14.0776 C.ar    1  UNL1        0.0001
     11 C          66.0286   91.9788   14.8230 C.ar    1  UNL1        0.0031
     12 C          64.9438   91.1732   14.1716 C.ar    1  UNL1        0.0371
     13 C          64.2988   90.0425   14.9170 C.ar    1  UNL1        0.1806
     14 N          63.3326   90.1753   16.0566 N.ar    1  UNL1       -0.1084
     15 N          62.9434   88.7953   16.4975 N.ar    1  UNL1       -0.0229
     16 N          63.6692   87.8097   15.6304 N.ar    1  UNL1       -0.0464
     17 N          64.5069   88.5805   14.6536 N.ar    1  UNL1       -0.2388
     18 H          65.0908   88.1946   13.9612 H       1  UNL1        0.1923
     19 C          60.1651   88.2757   10.1694 C.3     1  UNL1        0.1339
     20 C          59.8337   87.4157    7.6602 C.ar    1  UNL1        0.1216
     21 N          59.4667   88.0620    6.3573 N.ar    1  UNL1       -0.2195
     22 C          59.2545   89.5254    6.6093 C.ar    1  UNL1        0.1568
     23 CL         58.8734   90.5506    5.5828 Cl      1  UNL1       -0.0597
     24 C          59.4903   89.7835    8.0680 C.ar    1  UNL1        0.1082
     25 N          59.8482   88.4797    8.7175 N.ar    1  UNL1       -0.3087
     26 C          60.1334   85.9609    7.8692 C.3     1  UNL1        0.0640
     27 C          61.5016   85.4260    7.5661 C.3     1  UNL1        0.0079
     28 C          63.2147   84.6628    9.3641 C.3     1  UNL1        0.0000
     29 C          62.6480   85.7360    8.4826 C.3     1  UNL1        0.0005
@<TRIPOS>BOND
     1    28    29    1
     2    29    27    1
     3    27    26    1
     4    26    20    1
     5    20    21   ar
     6    21    22   ar
     7    22    23    1
     8    22    24   ar
     9    24    25   ar
    10    25    19    1
    11    19     1    1
    12     1     2   ar
    13     2     3   ar
    14     3     4   ar
    15     4     7    1
    16     7     8   ar
    17     8     9   ar
    18     9    10   ar
    19    10    11   ar
    20    11    12   ar
    21    12    13    1
    22    13    14   ar
    23    14    15   ar
    24    15    16   ar
    25    16    17   ar
    26     4     5   ar
    27     5     6   ar
    28    25    20   ar
    29     6     1   ar
    30    12     7   ar
    31    17    13   ar
    32    17    18    1
