@<TRIPOS>MOLECULE
*****
 23 26 0 0 0
SMALL
GASTEIGER

@<TRIPOS>ATOM
      1 C          65.4123   92.3562   12.3253 C.3     1  UNL1        0.2082
      2 S          64.6928   91.9811   11.0637 S.3     1  UNL1       -0.0753
      3 C          63.4950   91.0801   11.1230 C.ar    1  UNL1        0.0443
      4 C          62.7755   90.7050    9.8615 C.ar    1  UNL1        0.0077
      5 C          61.5777   89.8041    9.9208 C.ar    1  UNL1        0.0006
      6 C          61.0994   89.2783   11.2417 C.ar    1  UNL1        0.0015
      7 C          61.8189   89.6534   12.5033 C.ar    1  UNL1        0.0182
      8 C          63.0167   90.5543   12.4439 C.ar    1  UNL1        0.0768
      9 N          63.7362   90.9295   13.7055 N.ar    1  UNL1       -0.2242
     10 C          64.9340   91.8304   13.6462 C.ar    1  UNL1        0.2069
     11 N          65.4366   92.0261   15.0459 N.ar    1  UNL1       -0.0545
     12 O          64.5494   91.2461   15.9702 O.2     1  UNL1       -0.2950
     13 C          63.4984   90.5684   15.1418 C.ar    1  UNL1        0.4472
     14 O          62.4023   89.6847   15.6590 O.2     1  UNL1       -0.2203
     15 C          66.2404   93.1023   11.3215 C.ar    1  UNL1        0.0189
     16 C          66.1301   94.5948   11.2190 C.ar    1  UNL1       -0.0007
     17 C          66.9582   95.3409   10.2152 C.ar    1  UNL1       -0.0002
     18 C          67.8965   94.5945    9.3138 C.ar    1  UNL1       -0.0000
     19 C          68.0067   93.1020    9.4163 C.ar    1  UNL1       -0.0002
     20 C          67.1787   92.3560   10.4201 C.ar    1  UNL1       -0.0007
     21 O          66.4194   92.9905   13.2383 O.3     1  UNL1       -0.3379
     22 C          68.5390   92.7311   14.7182 C.3     1  UNL1        0.0347
     23 C          67.6898   92.2663   13.5725 C.3     1  UNL1        0.1440
@<TRIPOS>BOND
     1    22    23    1
     2    23    21    1
     3    21     1    1
     4     1    15    1
     5    15    16   ar
     6    16    17   ar
     7    17    18   ar
     8    18    19   ar
     9    19    20   ar
    10     1     2    1
    11     2     3    1
    12     3     4   ar
    13     4     5   ar
    14     5     6   ar
    15     6     7   ar
    16     7     8   ar
    17     8     9    1
    18     9    10   ar
    19    10    11   ar
    20    11    12   ar
    21    12    13   ar
    22    13    14    2
    23    10     1    1
    24    20    15   ar
    25     8     3   ar
    26    13     9   ar
@<TRIPOS>MOLECULE
*****
 23 26 0 0 0
SMALL
GASTEIGER

@<TRIPOS>ATOM
      1 C          62.1466   86.6007   11.2353 C.3     1  UNL1        0.2082
      2 S          62.0485   85.1421   10.8996 S.3     1  UNL1       -0.0753
      3 C          62.7506   84.1273   11.7524 C.ar    1  UNL1        0.0443
      4 C          62.6525   82.6686   11.4167 C.ar    1  UNL1        0.0077
      5 C          63.3546   81.6539   12.2695 C.ar    1  UNL1        0.0006
      6 C          64.1548   82.0978   13.4580 C.ar    1  UNL1        0.0015
      7 C          64.2529   83.5564   13.7938 C.ar    1  UNL1        0.0182
      8 C          63.5508   84.5712   12.9410 C.ar    1  UNL1        0.0768
      9 N          63.6489   86.0299   13.2767 N.ar    1  UNL1       -0.2242
     10 C          62.9468   87.0446   12.4238 C.ar    1  UNL1        0.2069
     11 N          63.2230   88.4028   12.9973 N.ar    1  UNL1       -0.0545
     12 O          64.0959   88.2275   14.2045 O.2     1  UNL1       -0.2950
     13 C          64.3591   86.7609   14.3771 C.ar    1  UNL1        0.4472
     14 O          65.1871   86.1353   15.4601 O.2     1  UNL1       -0.2203
     15 C          61.2754   86.6719   10.0164 C.ar    1  UNL1        0.0189
     16 C          61.6487   85.9059    8.7818 C.ar    1  UNL1       -0.0007
     17 C          60.7774   85.9772    7.5628 C.ar    1  UNL1       -0.0002
     18 C          59.5329   86.8144    7.5784 C.ar    1  UNL1       -0.0000
     19 C          59.1596   87.5804    8.8129 C.ar    1  UNL1       -0.0002
     20 C          60.0308   87.5091   10.0318 C.ar    1  UNL1       -0.0007
     21 O          61.9421   88.0841   11.1477 O.3     1  UNL1       -0.3379
     22 C          62.5688   90.3760   10.0967 C.3     1  UNL1        0.0347
     23 C          62.6543   88.8785   10.0934 C.3     1  UNL1        0.1440
@<TRIPOS>BOND
     1    22    23    1
     2    23    21    1
     3    21     1    1
     4     1    15    1
     5    15    16   ar
     6    16    17   ar
     7    17    18   ar
     8    18    19   ar
     9    19    20   ar
    10     1     2    1
    11     2     3    1
    12     3     4   ar
    13     4     5   ar
    14     5     6   ar
    15     6     7   ar
    16     7     8   ar
    17     8     9    1
    18     9    10   ar
    19    10    11   ar
    20    11    12   ar
    21    12    13   ar
    22    13    14    2
    23    10     1    1
    24    20    15   ar
    25     8     3   ar
    26    13     9   ar
@<TRIPOS>MOLECULE
*****
 23 26 0 0 0
SMALL
GASTEIGER

@<TRIPOS>ATOM
      1 C          62.8204   85.7241   12.4871 C.3     1  UNL1        0.2082
      2 S          61.9692   85.4246   11.2889 S.3     1  UNL1       -0.0753
      3 C          61.4956   86.5419   10.4071 C.ar    1  UNL1        0.0443
      4 C          60.6444   86.2424    9.2089 C.ar    1  UNL1        0.0077
      5 C          60.1709   87.3597    8.3272 C.ar    1  UNL1        0.0006
      6 C          60.5486   88.7765    8.6437 C.ar    1  UNL1        0.0015
      7 C          61.3998   89.0759    9.8419 C.ar    1  UNL1        0.0182
      8 C          61.8733   87.9586   10.7236 C.ar    1  UNL1        0.0768
      9 N          62.7246   88.2581   11.9219 N.ar    1  UNL1       -0.2242
     10 C          63.1981   87.1408   12.8036 C.ar    1  UNL1        0.2069
     11 N          64.0192   87.7379   13.9078 N.ar    1  UNL1       -0.0545
     12 O          64.0531   89.2242   13.7085 O.2     1  UNL1       -0.2950
     13 C          63.2530   89.5457   12.4811 C.ar    1  UNL1        0.4472
     14 O          63.0219   90.9145   11.9128 O.2     1  UNL1       -0.2203
     15 C          62.7270   84.2313   12.6004 C.ar    1  UNL1        0.0189
     16 C          63.1128   83.3653   11.4379 C.ar    1  UNL1       -0.0007
     17 C          63.0195   81.8725   11.5512 C.ar    1  UNL1       -0.0002
     18 C          62.5404   81.2457   12.8269 C.ar    1  UNL1       -0.0000
     19 C          62.1546   82.1116   13.9894 C.ar    1  UNL1       -0.0002
     20 C          62.2480   83.6044   13.8761 C.ar    1  UNL1       -0.0007
     21 O          63.6392   85.5051   13.7247 O.3     1  UNL1       -0.3379
     22 C          65.9963   84.9172   14.6458 C.3     1  UNL1        0.0347
     23 C          64.8908   84.6809   13.6599 C.3     1  UNL1        0.1440
@<TRIPOS>BOND
     1    22    23    1
     2    23    21    1
     3    21     1    1
     4     1    15    1
     5    15    16   ar
     6    16    17   ar
     7    17    18   ar
     8    18    19   ar
     9    19    20   ar
    10     1     2    1
    11     2     3    1
    12     3     4   ar
    13     4     5   ar
    14     5     6   ar
    15     6     7   ar
    16     7     8   ar
    17     8     9    1
    18     9    10   ar
    19    10    11   ar
    20    11    12   ar
    21    12    13   ar
    22    13    14    2
    23    10     1    1
    24    20    15   ar
    25     8     3   ar
    26    13     9   ar
@<TRIPOS>MOLECULE
*****
 23 26 0 0 0
SMALL
GASTEIGER

@<TRIPOS>ATOM
      1 C          62.6886   85.6289   11.4777 C.3     1  UNL1        0.2082
      2 S          62.7017   87.1084   11.2308 S.3     1  UNL1       -0.0753
      3 C          63.1906   88.0426   12.2979 C.ar    1  UNL1        0.0443
      4 C          63.2037   89.5220   12.0510 C.ar    1  UNL1        0.0077
      5 C          63.6925   90.4561   13.1180 C.ar    1  UNL1        0.0006
      6 C          64.1681   89.9107   14.4319 C.ar    1  UNL1        0.0015
      7 C          64.1550   88.4312   14.6788 C.ar    1  UNL1        0.0182
      8 C          63.6662   87.4972   13.6118 C.ar    1  UNL1        0.0768
      9 N          63.6530   86.0176   13.8586 N.ar    1  UNL1       -0.2242
     10 C          63.1642   85.0836   12.7916 C.ar    1  UNL1        0.2069
     11 N          63.2671   83.6831   13.3189 N.ar    1  UNL1       -0.0545
     12 O          63.8195   83.7516   14.7118 O.2     1  UNL1       -0.2950
     13 C          64.0580   85.1945   15.0454 C.ar    1  UNL1        0.4472
     14 O          64.6054   85.7217   16.3386 O.2     1  UNL1       -0.2203
     15 C          62.1425   85.6648   10.0812 C.ar    1  UNL1        0.0189
     16 C          62.9738   85.1632    8.9377 C.ar    1  UNL1       -0.0007
     17 C          62.4277   85.1991    7.5410 C.ar    1  UNL1       -0.0002
     18 C          61.0504   85.7366    7.2879 C.ar    1  UNL1       -0.0000
     19 C          60.2192   86.2383    8.4313 C.ar    1  UNL1       -0.0002
     20 C          60.7653   86.2024    9.8279 C.ar    1  UNL1       -0.0007
     21 O          62.4858   84.1619   11.2396 O.3     1  UNL1       -0.3379
     22 C          63.4188   81.8548   10.4935 C.3     1  UNL1        0.0347
     23 C          63.6354   83.3087   10.7921 C.3     1  UNL1        0.1440
@<TRIPOS>BOND
     1    22    23    1
     2    23    21    1
     3    21     1    1
     4     1    15    1
     5    15    16   ar
     6    16    17   ar
     7    17    18   ar
     8    18    19   ar
     9    19    20   ar
    10     1     2    1
    11     2     3    1
    12     3     4   ar
    13     4     5   ar
    14     5     6   ar
    15     6     7   ar
    16     7     8   ar
    17     8     9    1
    18     9    10   ar
    19    10    11   ar
    20    11    12   ar
    21    12    13   ar
    22    13    14    2
    23    10     1    1
    24    20    15   ar
    25     8     3   ar
    26    13     9   ar
@<TRIPOS>MOLECULE
*****
 23 26 0 0 0
SMALL
GASTEIGER

@<TRIPOS>ATOM
      1 C          62.4793   86.1875   10.6577 C.3     1  UNL1        0.2082
      2 S          62.4137   87.5523   10.0390 S.3     1  UNL1       -0.0753
      3 C          62.7851   88.7606   10.8465 C.ar    1  UNL1        0.0443
      4 C          62.7195   90.1254   10.2278 C.ar    1  UNL1        0.0077
      5 C          63.0910   91.3336   11.0353 C.ar    1  UNL1        0.0006
      6 C          63.5280   91.1770   12.4617 C.ar    1  UNL1        0.0015
      7 C          63.5936   89.8122   13.0805 C.ar    1  UNL1        0.0182
      8 C          63.2222   88.6040   12.2729 C.ar    1  UNL1        0.0768
      9 N          63.2878   87.2391   12.8917 N.ar    1  UNL1       -0.2242
     10 C          62.9164   86.0309   12.0841 C.ar    1  UNL1        0.2069
     11 N          63.0776   84.8221   12.9575 N.ar    1  UNL1       -0.0545
     12 O          63.5487   85.2833   14.3048 O.2     1  UNL1       -0.2950
     13 C          63.6786   86.7771   14.2642 C.ar    1  UNL1        0.4472
     14 O          64.1215   87.6548   15.3971 O.2     1  UNL1       -0.2203
     15 C          62.0082   85.8266    9.2802 C.ar    1  UNL1        0.0189
     16 C          62.9555   85.1907    8.3062 C.ar    1  UNL1       -0.0007
     17 C          62.4844   84.8298    6.9285 C.ar    1  UNL1       -0.0002
     18 C          61.0661   85.1047    6.5249 C.ar    1  UNL1       -0.0000
     19 C          60.1189   85.7405    7.4989 C.ar    1  UNL1       -0.0002
     20 C          60.5900   86.1014    8.8764 C.ar    1  UNL1       -0.0007
     21 O          62.3813   84.6973   10.7981 O.3     1  UNL1       -0.3379
     22 C          63.4766   82.3470   10.6352 C.3     1  UNL1        0.0347
     23 C          63.5914   83.8411   10.5689 C.3     1  UNL1        0.1440
@<TRIPOS>BOND
     1    22    23    1
     2    23    21    1
     3    21     1    1
     4     1    15    1
     5    15    16   ar
     6    16    17   ar
     7    17    18   ar
     8    18    19   ar
     9    19    20   ar
    10     1     2    1
    11     2     3    1
    12     3     4   ar
    13     4     5   ar
    14     5     6   ar
    15     6     7   ar
    16     7     8   ar
    17     8     9    1
    18     9    10   ar
    19    10    11   ar
    20    11    12   ar
    21    12    13   ar
    22    13    14    2
    23    10     1    1
    24    20    15   ar
    25     8     3   ar
    26    13     9   ar
@<TRIPOS>MOLECULE
*****
 23 26 0 0 0
SMALL
GASTEIGER

@<TRIPOS>ATOM
      1 C          64.2672   90.0677   13.7820 C.3     1  UNL1        0.2082
      2 S          65.1210   90.4704   14.9477 S.3     1  UNL1       -0.0753
      3 C          65.9560   91.7142   14.8716 C.ar    1  UNL1        0.0443
      4 C          66.8098   92.1169   16.0373 C.ar    1  UNL1        0.0077
      5 C          67.6448   93.3606   15.9611 C.ar    1  UNL1        0.0006
      6 C          67.6260   94.2017   14.7192 C.ar    1  UNL1        0.0015
      7 C          66.7722   93.7990   13.5535 C.ar    1  UNL1        0.0182
      8 C          65.9372   92.5553   13.6297 C.ar    1  UNL1        0.0768
      9 N          65.0834   92.1525   12.4640 N.ar    1  UNL1       -0.2242
     10 C          64.2484   90.9088   12.5402 C.ar    1  UNL1        0.2069
     11 N          63.5113   90.7651   11.2417 N.ar    1  UNL1       -0.0545
     12 O          63.8907   91.9201   10.3631 O.2     1  UNL1       -0.2950
     13 C          64.8623   92.7776   11.1185 C.ar    1  UNL1        0.4472
     14 O          65.5008   94.0387   10.6165 O.2     1  UNL1       -0.2203
     15 C          63.9514   88.9523   14.7339 C.ar    1  UNL1        0.0189
     16 C          63.2877   89.2509   16.0456 C.ar    1  UNL1       -0.0007
     17 C          62.9719   88.1354   16.9974 C.ar    1  UNL1       -0.0002
     18 C          63.3198   86.7214   16.6376 C.ar    1  UNL1       -0.0000
     19 C          63.9834   86.4228   15.3260 C.ar    1  UNL1       -0.0002
     20 C          64.2992   87.5382   14.3742 C.ar    1  UNL1       -0.0007
     21 O          63.3037   89.2776   12.9469 O.3     1  UNL1       -0.3379
     22 C          60.9743   89.1422   11.8044 C.3     1  UNL1        0.0347
     23 C          61.8576   89.6724   12.8946 C.3     1  UNL1        0.1440
@<TRIPOS>BOND
     1    22    23    1
     2    23    21    1
     3    21     1    1
     4     1    15    1
     5    15    16   ar
     6    16    17   ar
     7    17    18   ar
     8    18    19   ar
     9    19    20   ar
    10     1     2    1
    11     2     3    1
    12     3     4   ar
    13     4     5   ar
    14     5     6   ar
    15     6     7   ar
    16     7     8   ar
    17     8     9    1
    18     9    10   ar
    19    10    11   ar
    20    11    12   ar
    21    12    13   ar
    22    13    14    2
    23    10     1    1
    24    20    15   ar
    25     8     3   ar
    26    13     9   ar
@<TRIPOS>MOLECULE
*****
 23 26 0 0 0
SMALL
GASTEIGER

@<TRIPOS>ATOM
      1 C          61.9182   86.9604   10.9126 C.3     1  UNL1        0.2082
      2 S          62.0395   88.4428   11.1072 S.3     1  UNL1       -0.0753
      3 C          62.8735   88.9861   12.2295 C.ar    1  UNL1        0.0443
      4 C          62.9949   90.4684   12.4242 C.ar    1  UNL1        0.0077
      5 C          63.8287   91.0116   13.5465 C.ar    1  UNL1        0.0006
      6 C          64.5412   90.0725   14.4741 C.ar    1  UNL1        0.0015
      7 C          64.4198   88.5902   14.2794 C.ar    1  UNL1        0.0182
      8 C          63.5859   88.0470   13.1571 C.ar    1  UNL1        0.0768
      9 N          63.4645   86.5646   12.9624 N.ar    1  UNL1       -0.2242
     10 C          62.6306   86.0213   11.8402 C.ar    1  UNL1        0.2069
     11 N          62.6975   84.5239   11.8958 N.ar    1  UNL1       -0.0545
     12 O          63.5727   84.1416   13.0525 O.2     1  UNL1       -0.2950
     13 C          64.0467   85.4029   13.7117 C.ar    1  UNL1        0.4472
     14 O          64.9453   85.4875   14.9098 O.2     1  UNL1       -0.2203
     15 C          61.0600   87.4429    9.7809 C.ar    1  UNL1        0.0189
     16 C          60.1881   86.4761    9.0358 C.ar    1  UNL1       -0.0007
     17 C          59.3299   86.9587    7.9040 C.ar    1  UNL1       -0.0002
     18 C          59.3437   88.4079    7.5174 C.ar    1  UNL1       -0.0000
     19 C          60.2156   89.3746    8.2625 C.ar    1  UNL1       -0.0002
     20 C          61.0737   88.8921    9.3942 C.ar    1  UNL1       -0.0007
     21 O          61.4987   85.6457   10.3249 O.3     1  UNL1       -0.3379
     22 C          63.0773   85.2593    8.2978 C.3     1  UNL1        0.0347
     23 C          62.4994   84.7940    9.6015 C.3     1  UNL1        0.1440
@<TRIPOS>BOND
     1    22    23    1
     2    23    21    1
     3    21     1    1
     4     1    15    1
     5    15    16   ar
     6    16    17   ar
     7    17    18   ar
     8    18    19   ar
     9    19    20   ar
    10     1     2    1
    11     2     3    1
    12     3     4   ar
    13     4     5   ar
    14     5     6   ar
    15     6     7   ar
    16     7     8   ar
    17     8     9    1
    18     9    10   ar
    19    10    11   ar
    20    11    12   ar
    21    12    13   ar
    22    13    14    2
    23    10     1    1
    24    20    15   ar
    25     8     3   ar
    26    13     9   ar
@<TRIPOS>MOLECULE
*****
 23 26 0 0 0
SMALL
GASTEIGER

@<TRIPOS>ATOM
      1 C          62.5809   90.0285   12.0303 C.3     1  UNL1        0.2082
      2 S          63.3283   90.7108   10.9233 S.3     1  UNL1       -0.0753
      3 C          64.4354   91.6703   11.2458 C.ar    1  UNL1        0.0443
      4 C          65.1829   92.3526   10.1387 C.ar    1  UNL1        0.0077
      5 C          66.2898   93.3120   10.4613 C.ar    1  UNL1        0.0006
      6 C          66.6493   93.5891   11.8910 C.ar    1  UNL1        0.0015
      7 C          65.9018   92.9068   12.9981 C.ar    1  UNL1        0.0182
      8 C          64.7949   91.9474   12.6755 C.ar    1  UNL1        0.0768
      9 N          64.0473   91.2650   13.7826 N.ar    1  UNL1       -0.2242
     10 C          62.9403   90.3056   13.4600 C.ar    1  UNL1        0.2069
     11 N          62.3852   89.7866   14.7533 N.ar    1  UNL1       -0.0545
     12 O          63.1491   90.4253   15.8751 O.2     1  UNL1       -0.2950
     13 C          64.1764   91.3390   15.2752 C.ar    1  UNL1        0.4472
     14 O          65.1600   92.1792   16.0345 O.2     1  UNL1       -0.2203
     15 C          61.8769   89.4440   10.8418 C.ar    1  UNL1        0.0189
     16 C          60.9589   90.2984   10.0188 C.ar    1  UNL1       -0.0007
     17 C          60.2549   89.7138    8.8302 C.ar    1  UNL1       -0.0002
     18 C          60.4688   88.2749    8.4647 C.ar    1  UNL1       -0.0000
     19 C          61.3868   87.4205    9.2877 C.ar    1  UNL1       -0.0002
     20 C          62.0908   88.0050   10.4762 C.ar    1  UNL1       -0.0007
     21 O          61.5889   89.1432   12.7247 O.3     1  UNL1       -0.3379
     22 C          59.0346   88.7074   12.5351 C.3     1  UNL1        0.0347
     23 C          60.1746   89.6056   12.9141 C.3     1  UNL1        0.1440
@<TRIPOS>BOND
     1    22    23    1
     2    23    21    1
     3    21     1    1
     4     1    15    1
     5    15    16   ar
     6    16    17   ar
     7    17    18   ar
     8    18    19   ar
     9    19    20   ar
    10     1     2    1
    11     2     3    1
    12     3     4   ar
    13     4     5   ar
    14     5     6   ar
    15     6     7   ar
    16     7     8   ar
    17     8     9    1
    18     9    10   ar
    19    10    11   ar
    20    11    12   ar
    21    12    13   ar
    22    13    14    2
    23    10     1    1
    24    20    15   ar
    25     8     3   ar
    26    13     9   ar
@<TRIPOS>MOLECULE
*****
 23 26 0 0 0
SMALL
GASTEIGER

@<TRIPOS>ATOM
      1 C          62.4662   85.6401   10.6478 C.3     1  UNL1        0.2082
      2 S          62.6559   86.6256   11.7625 S.3     1  UNL1       -0.0753
      3 C          63.3881   86.2187   13.0069 C.ar    1  UNL1        0.0443
      4 C          63.5778   87.2043   14.1216 C.ar    1  UNL1        0.0077
      5 C          64.3099   86.7974   15.3659 C.ar    1  UNL1        0.0006
      6 C          64.8525   85.4050   15.4955 C.ar    1  UNL1        0.0015
      7 C          64.6628   84.4194   14.3808 C.ar    1  UNL1        0.0182
      8 C          63.9306   84.8263   13.1365 C.ar    1  UNL1        0.0768
      9 N          63.7409   83.8407   12.0216 N.ar    1  UNL1       -0.2242
     10 C          63.0087   84.2476   10.7774 C.ar    1  UNL1        0.2069
     11 N          62.9762   83.0676    9.8519 N.ar    1  UNL1       -0.0545
     12 O          63.6883   81.9315   10.5242 O.2     1  UNL1       -0.2950
     13 C          64.1609   82.4093   11.8653 C.ar    1  UNL1        0.4472
     14 O          64.9202   81.5981   12.8729 O.2     1  UNL1       -0.2203
     15 C          61.7744   86.8342   10.0602 C.ar    1  UNL1        0.0189
     16 C          62.3770   88.1997   10.2111 C.ar    1  UNL1       -0.0007
     17 C          61.6851   89.3939    9.6235 C.ar    1  UNL1       -0.0002
     18 C          60.3908   89.2227    8.8851 C.ar    1  UNL1       -0.0000
     19 C          59.7883   87.8574    8.7342 C.ar    1  UNL1       -0.0002
     20 C          60.4801   86.6632    9.3218 C.ar    1  UNL1       -0.0007
     21 O          62.0363   85.0692    9.3290 O.3     1  UNL1       -0.3379
     22 C          62.3953   84.8262    6.7673 C.3     1  UNL1        0.0347
     23 C          62.8950   85.2589    8.1138 C.3     1  UNL1        0.1440
@<TRIPOS>BOND
     1    22    23    1
     2    23    21    1
     3    21     1    1
     4     1    15    1
     5    15    16   ar
     6    16    17   ar
     7    17    18   ar
     8    18    19   ar
     9    19    20   ar
    10     1     2    1
    11     2     3    1
    12     3     4   ar
    13     4     5   ar
    14     5     6   ar
    15     6     7   ar
    16     7     8   ar
    17     8     9    1
    18     9    10   ar
    19    10    11   ar
    20    11    12   ar
    21    12    13   ar
    22    13    14    2
    23    10     1    1
    24    20    15   ar
    25     8     3   ar
    26    13     9   ar
