@<TRIPOS>MOLECULE
*****
 37 40 0 0 0
SMALL
GASTEIGER

@<TRIPOS>ATOM
      1 N          61.6304   87.6148   10.9544 N.pl3   1  UNL1       -0.3316
      2 H          61.0526   87.7352   10.1665 H       1  UNL1        0.1468
      3 C          62.4972   88.7435   11.4284 C.ar    1  UNL1        0.0577
      4 C          63.3274   88.5825   12.6673 C.ar    1  UNL1        0.0462
      5 C          64.1941   89.7114   13.1412 C.ar    1  UNL1        0.1602
      6 F          65.0243   89.5504   14.3801 F       1  UNL1       -0.2027
      7 C          64.2307   91.0011   12.3763 C.ar    1  UNL1        0.1534
      8 C          63.4005   91.1621   11.1374 C.ar    1  UNL1        0.0351
      9 C          62.5337   90.0334   10.6634 C.ar    1  UNL1        0.0722
     10 CL         61.7036   90.1944    9.4245 Cl      1  UNL1       -0.0809
     11 S          65.0974   92.1299   12.8502 S.O2    1  UNL1        0.0772
     12 O          65.6664   92.2726   11.4697 O.2     1  UNL1       -0.1498
     13 O          64.5284   91.9871   14.2307 O.2     1  UNL1       -0.1498
     14 N          65.9642   93.2587   13.3242 N.pl3   1  UNL1       -0.1936
     15 H          65.7295   94.1878   13.0984 H       1  UNL1        0.1758
     16 C          67.1884   92.9718   14.1420 C.ar    1  UNL1        0.1786
     17 N          68.4364   92.2974   13.6545 N.ar    1  UNL1       -0.2214
     18 C          69.3989   92.2178   14.8022 C.ar    1  UNL1        0.1079
     19 C          68.7458   92.8430   15.9991 C.ar    1  UNL1        0.0588
     20 S          67.3796   93.3091   15.5912 S.2     1  UNL1       -0.0497
     21 C          61.6441   86.3026   11.6810 C.3     1  UNL1        0.0927
     22 N          61.8790   85.5662    8.7822 N.3     1  UNL1       -0.3219
     23 C          62.7093   84.8519    9.8072 C.3     1  UNL1        0.0568
     24 C          63.6570   83.7695    9.3828 C.3     1  UNL1        0.0205
     25 C          64.4872   83.0552   10.4078 C.3     1  UNL1        0.0271
     26 C          64.3698   83.4234   11.8571 C.2     1  UNL1       -0.0303
     27 C          63.4221   84.5058   12.2815 C.2     1  UNL1       -0.0238
     28 C          62.5918   85.2201   11.2565 C.3     1  UNL1        0.0557
     29 H          62.0851   85.1911    7.8564 H       1  UNL1        0.1188
     30 H          62.0974   86.5623    8.8019 H       1  UNL1        0.1188
     31 C          63.3046   84.8741   13.7309 C.ar    1  UNL1       -0.0040
     32 C          64.2207   85.9057   14.3192 C.ar    1  UNL1        0.0020
     33 C          64.1033   86.2740   15.7686 C.ar    1  UNL1        0.0296
     34 C          63.0696   85.6104   16.6296 C.ar    1  UNL1        0.1401
     35 F          62.9520   85.9786   18.0789 F       1  UNL1       -0.2042
     36 C          62.1534   84.5787   16.0411 C.ar    1  UNL1        0.0296
     37 C          62.2709   84.2105   14.5918 C.ar    1  UNL1        0.0020
@<TRIPOS>BOND
     1    23    22    1
     2    23    24    1
     3    24    25    1
     4    25    26    1
     5    26    27    2
     6    27    31    1
     7    31    32   ar
     8    32    33   ar
     9    33    34   ar
    10    34    35    1
    11    34    36   ar
    12    36    37   ar
    13    27    28    1
    14    28    21    1
    15    21     1    1
    16     1     3    1
    17     3     4   ar
    18     4     5   ar
    19     5     6    1
    20     5     7   ar
    21     7    11    1
    22    11    12    2
    23    11    13    2
    24    11    14    1
    25    14    16    1
    26    16    17   ar
    27    17    18   ar
    28    18    19   ar
    29    19    20   ar
    30     7     8   ar
    31     8     9   ar
    32     9    10    1
    33    28    23    1
    34     9     3   ar
    35    37    31   ar
    36    20    16   ar
    37    22    29    1
    38    22    30    1
    39     1     2    1
    40    14    15    1
@<TRIPOS>MOLECULE
*****
 37 40 0 0 0
SMALL
GASTEIGER

@<TRIPOS>ATOM
      1 N          61.2823   87.7263   11.0737 N.pl3   1  UNL1       -0.3316
      2 H          60.5529   87.8207   10.4193 H       1  UNL1        0.1468
      3 C          62.2215   88.8696   11.3201 C.ar    1  UNL1        0.0577
      4 C          63.1320   88.8488   12.5121 C.ar    1  UNL1        0.0462
      5 C          64.0712   89.9922   12.7584 C.ar    1  UNL1        0.1602
      6 F          64.9816   89.9714   13.9504 F       1  UNL1       -0.2027
      7 C          64.0999   91.1563   11.8129 C.ar    1  UNL1        0.1534
      8 C          63.1895   91.1771   10.6210 C.ar    1  UNL1        0.0351
      9 C          62.2503   90.0338   10.3746 C.ar    1  UNL1        0.0722
     10 CL         61.3399   90.0545    9.1827 Cl      1  UNL1       -0.0809
     11 S          65.0391   92.2996   12.0593 S.O2    1  UNL1        0.0772
     12 O          65.4352   92.2860   10.6127 O.2     1  UNL1       -0.1498
     13 O          64.6430   92.3132   13.5060 O.2     1  UNL1       -0.1498
     14 N          65.9783   93.4430   12.3057 N.pl3   1  UNL1       -0.1936
     15 H          66.2842   93.6404   13.2204 H       1  UNL1        0.1758
     16 C          66.4515   94.2854   11.1584 C.ar    1  UNL1        0.1786
     17 N          67.6310   93.9946   10.2785 N.ar    1  UNL1       -0.2214
     18 C          67.7367   95.0961    9.2658 C.ar    1  UNL1        0.1079
     19 C          66.6225   96.0677    9.5198 C.ar    1  UNL1        0.0588
     20 S          65.8282   95.5668   10.6895 S.2     1  UNL1       -0.0497
     21 C          61.4545   86.4391   11.8243 C.3     1  UNL1        0.0927
     22 N          61.5699   85.7857    8.8986 N.3     1  UNL1       -0.3219
     23 C          62.4744   85.0758    9.8618 C.3     1  UNL1        0.0568
     24 C          63.4366   84.0392    9.3622 C.3     1  UNL1        0.0205
     25 C          64.3412   83.3293   10.3254 C.3     1  UNL1        0.0271
     26 C          64.2835   83.6560   11.7883 C.2     1  UNL1       -0.0303
     27 C          63.3213   84.6925   12.2879 C.2     1  UNL1       -0.0238
     28 C          62.4168   85.4025   11.3246 C.3     1  UNL1        0.0557
     29 H          61.7423   85.4420    7.9539 H       1  UNL1        0.1188
     30 H          61.7544   86.7882    8.9347 H       1  UNL1        0.1188
     31 C          63.2636   85.0192   13.7508 C.ar    1  UNL1       -0.0040
     32 C          62.3106   84.2846   14.6463 C.ar    1  UNL1        0.0020
     33 C          62.2529   84.6113   16.1092 C.ar    1  UNL1        0.0296
     34 C          63.1483   85.6727   16.6765 C.ar    1  UNL1        0.1401
     35 F          63.0907   85.9994   18.1393 F       1  UNL1       -0.2042
     36 C          64.1014   86.4073   15.7809 C.ar    1  UNL1        0.0296
     37 C          64.1590   86.0806   14.3181 C.ar    1  UNL1        0.0020
@<TRIPOS>BOND
     1    23    22    1
     2    23    24    1
     3    24    25    1
     4    25    26    1
     5    26    27    2
     6    27    31    1
     7    31    32   ar
     8    32    33   ar
     9    33    34   ar
    10    34    35    1
    11    34    36   ar
    12    36    37   ar
    13    27    28    1
    14    28    21    1
    15    21     1    1
    16     1     3    1
    17     3     4   ar
    18     4     5   ar
    19     5     6    1
    20     5     7   ar
    21     7    11    1
    22    11    12    2
    23    11    13    2
    24    11    14    1
    25    14    16    1
    26    16    17   ar
    27    17    18   ar
    28    18    19   ar
    29    19    20   ar
    30     7     8   ar
    31     8     9   ar
    32     9    10    1
    33    28    23    1
    34     9     3   ar
    35    37    31   ar
    36    20    16   ar
    37    22    29    1
    38    22    30    1
    39     1     2    1
    40    14    15    1
@<TRIPOS>MOLECULE
*****
 37 40 0 0 0
SMALL
GASTEIGER

@<TRIPOS>ATOM
      1 N          64.2991   89.8386   15.0514 N.pl3   1  UNL1       -0.3316
      2 H          65.0037   90.2215   15.6226 H       1  UNL1        0.1468
      3 C          63.9894   88.3727   15.1235 C.ar    1  UNL1        0.0577
      4 C          64.2411   87.4936   13.9345 C.ar    1  UNL1        0.0462
      5 C          63.9313   86.0276   14.0067 C.ar    1  UNL1        0.1602
      6 F          64.1830   85.1484   12.8177 F       1  UNL1       -0.2027
      7 C          63.3697   85.4410   15.2679 C.ar    1  UNL1        0.1534
      8 C          63.1180   86.3201   16.4568 C.ar    1  UNL1        0.0351
      9 C          63.4278   87.7860   16.3847 C.ar    1  UNL1        0.0722
     10 CL         63.1761   88.6652   17.5737 Cl      1  UNL1       -0.0809
     11 S          63.0600   83.9751   15.3400 S.O2    1  UNL1        0.0772
     12 O          64.5272   83.6676   15.3915 O.2     1  UNL1       -0.1498
     13 O          61.5928   84.2826   15.2885 O.2     1  UNL1       -0.1498
     14 N          62.7502   82.5091   15.4121 N.pl3   1  UNL1       -0.1936
     15 H          62.5731   82.0857   16.2831 H       1  UNL1        0.1758
     16 C          62.7103   81.6884   14.1572 C.ar    1  UNL1        0.1786
     17 N          62.6266   80.1925   14.0844 N.ar    1  UNL1       -0.2214
     18 C          62.6117   79.7990   12.6370 C.ar    1  UNL1        0.1079
     19 C          62.6862   81.0517   11.8153 C.ar    1  UNL1        0.0588
     20 S          62.7472   82.2195   12.7548 S.2     1  UNL1       -0.0497
     21 C          63.5355   90.7211   14.1090 C.3     1  UNL1        0.0927
     22 N          65.7883   92.5768   14.8027 N.3     1  UNL1       -0.3219
     23 C          65.3847   92.3898   13.3702 C.3     1  UNL1        0.0568
     24 C          66.1075   93.1307   12.2845 C.3     1  UNL1        0.0205
     25 C          65.7039   92.9437   10.8520 C.3     1  UNL1        0.0271
     26 C          64.5775   92.0159   10.5051 C.2     1  UNL1       -0.0303
     27 C          63.8547   91.2750   11.5908 C.2     1  UNL1       -0.0238
     28 C          64.2583   91.4620   13.0233 C.3     1  UNL1        0.0557
     29 H          66.5643   93.2368   14.8540 H       1  UNL1        0.1188
     30 H          66.0780   91.6805   15.1941 H       1  UNL1        0.1188
     31 C          62.7283   90.3472   11.2439 C.ar    1  UNL1       -0.0040
     32 C          61.3781   90.9025   10.8995 C.ar    1  UNL1        0.0020
     33 C          60.2517   89.9746   10.5527 C.ar    1  UNL1        0.0296
     34 C          60.4755   88.4914   10.5503 C.ar    1  UNL1        0.1401
     35 F          59.3491   87.5636   10.2034 F       1  UNL1       -0.2042
     36 C          61.8257   87.9361   10.8947 C.ar    1  UNL1        0.0296
     37 C          62.9521   88.8640   11.2415 C.ar    1  UNL1        0.0020
@<TRIPOS>BOND
     1    23    22    1
     2    23    24    1
     3    24    25    1
     4    25    26    1
     5    26    27    2
     6    27    31    1
     7    31    32   ar
     8    32    33   ar
     9    33    34   ar
    10    34    35    1
    11    34    36   ar
    12    36    37   ar
    13    27    28    1
    14    28    21    1
    15    21     1    1
    16     1     3    1
    17     3     4   ar
    18     4     5   ar
    19     5     6    1
    20     5     7   ar
    21     7    11    1
    22    11    12    2
    23    11    13    2
    24    11    14    1
    25    14    16    1
    26    16    17   ar
    27    17    18   ar
    28    18    19   ar
    29    19    20   ar
    30     7     8   ar
    31     8     9   ar
    32     9    10    1
    33    28    23    1
    34     9     3   ar
    35    37    31   ar
    36    20    16   ar
    37    22    29    1
    38    22    30    1
    39     1     2    1
    40    14    15    1
@<TRIPOS>MOLECULE
*****
 37 40 0 0 0
SMALL
GASTEIGER

@<TRIPOS>ATOM
      1 N          60.6266   88.0636   11.4406 N.pl3   1  UNL1       -0.3316
      2 H          59.6919   88.3624   11.3606 H       1  UNL1        0.1468
      3 C          61.7252   89.0721   11.6012 C.ar    1  UNL1        0.0577
      4 C          62.7383   88.9098   12.6953 C.ar    1  UNL1        0.0462
      5 C          63.8370   89.9184   12.8559 C.ar    1  UNL1        0.1602
      6 F          64.8502   89.7560   13.9500 F       1  UNL1       -0.2027
      7 C          63.9225   91.0892   11.9222 C.ar    1  UNL1        0.1534
      8 C          62.9094   91.2516   10.8281 C.ar    1  UNL1        0.0351
      9 C          61.8108   90.2431   10.6675 C.ar    1  UNL1        0.0722
     10 CL         60.7976   90.4054    9.5733 Cl      1  UNL1       -0.0809
     11 S          65.0212   92.0978   12.0828 S.O2    1  UNL1        0.0772
     12 O          65.3884   91.9276   10.6385 O.2     1  UNL1       -0.1498
     13 O          64.6539   92.2679   13.5271 O.2     1  UNL1       -0.1498
     14 N          66.1199   93.1063   12.2433 N.pl3   1  UNL1       -0.1936
     15 H          66.6068   93.1723   13.0964 H       1  UNL1        0.1758
     16 C          66.4767   94.0144   11.1040 C.ar    1  UNL1        0.1786
     17 N          67.6604   93.8651   10.1949 N.ar    1  UNL1       -0.2214
     18 C          67.6277   94.9897    9.2027 C.ar    1  UNL1        0.1079
     19 C          66.4237   95.8340    9.4987 C.ar    1  UNL1        0.0588
     20 S          65.7123   95.2313   10.6737 S.2     1  UNL1       -0.0497
     21 C          60.9520   86.5998   11.4019 C.3     1  UNL1        0.0927
     22 N          60.0437   87.4839    8.6828 N.3     1  UNL1       -0.3219
     23 C          61.1160   86.4432    8.8137 C.3     1  UNL1        0.0568
     24 C          61.7341   85.8445    7.5852 C.3     1  UNL1        0.0205
     25 C          62.8064   84.8038    7.7161 C.3     1  UNL1        0.0271
     26 C          63.2605   84.3617    9.0756 C.2     1  UNL1       -0.0303
     27 C          62.6424   84.9604   10.3042 C.2     1  UNL1       -0.0238
     28 C          61.5701   86.0011   10.1733 C.3     1  UNL1        0.0557
     29 H          59.8614   87.6618    7.6951 H       1  UNL1        0.1188
     30 H          60.3503   88.3464    9.1327 H       1  UNL1        0.1188
     31 C          63.0965   84.5184   11.6638 C.ar    1  UNL1       -0.0040
     32 C          63.5543   85.5337   12.6685 C.ar    1  UNL1        0.0020
     33 C          64.0085   85.0917   14.0281 C.ar    1  UNL1        0.0296
     34 C          64.0047   83.6343   14.3829 C.ar    1  UNL1        0.1401
     35 F          64.4588   83.1922   15.7425 F       1  UNL1       -0.2042
     36 C          63.5468   82.6189   13.3782 C.ar    1  UNL1        0.0296
     37 C          63.0927   83.0610   12.0187 C.ar    1  UNL1        0.0020
@<TRIPOS>BOND
     1    23    22    1
     2    23    24    1
     3    24    25    1
     4    25    26    1
     5    26    27    2
     6    27    31    1
     7    31    32   ar
     8    32    33   ar
     9    33    34   ar
    10    34    35    1
    11    34    36   ar
    12    36    37   ar
    13    27    28    1
    14    28    21    1
    15    21     1    1
    16     1     3    1
    17     3     4   ar
    18     4     5   ar
    19     5     6    1
    20     5     7   ar
    21     7    11    1
    22    11    12    2
    23    11    13    2
    24    11    14    1
    25    14    16    1
    26    16    17   ar
    27    17    18   ar
    28    18    19   ar
    29    19    20   ar
    30     7     8   ar
    31     8     9   ar
    32     9    10    1
    33    28    23    1
    34     9     3   ar
    35    37    31   ar
    36    20    16   ar
    37    22    29    1
    38    22    30    1
    39     1     2    1
    40    14    15    1
@<TRIPOS>MOLECULE
*****
 37 40 0 0 0
SMALL
GASTEIGER

@<TRIPOS>ATOM
      1 N          60.5387   87.9228   11.3985 N.pl3   1  UNL1       -0.3316
      2 H          59.5957   88.1972   11.3298 H       1  UNL1        0.1468
      3 C          61.6096   88.9576   11.5777 C.ar    1  UNL1        0.0577
      4 C          62.6716   88.7654   12.6195 C.ar    1  UNL1        0.0462
      5 C          63.7426   89.8003   12.7986 C.ar    1  UNL1        0.1602
      6 F          64.8045   89.6080   13.8404 F       1  UNL1       -0.2027
      7 C          63.7516   91.0274   11.9360 C.ar    1  UNL1        0.1534
      8 C          62.6896   91.2196   10.8942 C.ar    1  UNL1        0.0351
      9 C          61.6187   90.1848   10.7150 C.ar    1  UNL1        0.0722
     10 CL         60.5567   90.3771    9.6733 Cl      1  UNL1       -0.0809
     11 S          64.8225   92.0622   12.1151 S.O2    1  UNL1        0.0772
     12 O          65.1478   91.9786   10.6532 O.2     1  UNL1       -0.1498
     13 O          64.4973   92.1457   13.5770 O.2     1  UNL1       -0.1498
     14 N          65.8936   93.0971   12.2942 N.pl3   1  UNL1       -0.1936
     15 H          65.9914   93.8232   11.6367 H       1  UNL1        0.1758
     16 C          66.8156   93.0255   13.4753 C.ar    1  UNL1        0.1786
     17 N          66.8334   93.9723   14.6386 N.ar    1  UNL1       -0.2214
     18 C          67.9105   93.5265   15.5826 C.ar    1  UNL1        0.1079
     19 C          68.5584   92.3043   15.0027 C.ar    1  UNL1        0.0588
     20 S          67.8818   91.9945   13.7003 S.2     1  UNL1       -0.0497
     21 C          60.9044   86.4700   11.3241 C.3     1  UNL1        0.0927
     22 N          59.9525   87.3813    8.6290 N.3     1  UNL1       -0.3219
     23 C          61.0589   86.3738    8.7324 C.3     1  UNL1        0.0568
     24 C          61.6894   85.8219    7.4883 C.3     1  UNL1        0.0205
     25 C          62.7959   84.8144    7.5916 C.3     1  UNL1        0.0271
     26 C          63.2718   84.3588    8.9391 C.2     1  UNL1       -0.0303
     27 C          62.6414   84.9106   10.1833 C.2     1  UNL1       -0.0238
     28 C          61.5349   85.9181   10.0799 C.3     1  UNL1        0.0557
     29 H          59.7588   87.5740    7.6463 H       1  UNL1        0.1188
     30 H          60.2332   88.2437    9.0957 H       1  UNL1        0.1188
     31 C          63.1174   84.4550   11.5308 C.ar    1  UNL1       -0.0040
     32 C          63.2787   82.9908   11.8137 C.ar    1  UNL1        0.0020
     33 C          63.7547   82.5352   13.1613 C.ar    1  UNL1        0.0296
     34 C          64.0693   83.5439   14.2260 C.ar    1  UNL1        0.1401
     35 F          64.5453   83.0883   15.5735 F       1  UNL1       -0.2042
     36 C          63.9079   85.0081   13.9431 C.ar    1  UNL1        0.0296
     37 C          63.4320   85.4637   12.5956 C.ar    1  UNL1        0.0020
@<TRIPOS>BOND
     1    23    22    1
     2    23    24    1
     3    24    25    1
     4    25    26    1
     5    26    27    2
     6    27    31    1
     7    31    32   ar
     8    32    33   ar
     9    33    34   ar
    10    34    35    1
    11    34    36   ar
    12    36    37   ar
    13    27    28    1
    14    28    21    1
    15    21     1    1
    16     1     3    1
    17     3     4   ar
    18     4     5   ar
    19     5     6    1
    20     5     7   ar
    21     7    11    1
    22    11    12    2
    23    11    13    2
    24    11    14    1
    25    14    16    1
    26    16    17   ar
    27    17    18   ar
    28    18    19   ar
    29    19    20   ar
    30     7     8   ar
    31     8     9   ar
    32     9    10    1
    33    28    23    1
    34     9     3   ar
    35    37    31   ar
    36    20    16   ar
    37    22    29    1
    38    22    30    1
    39     1     2    1
    40    14    15    1
@<TRIPOS>MOLECULE
*****
 37 40 0 0 0
SMALL
GASTEIGER

@<TRIPOS>ATOM
      1 N          63.4739   87.7948   14.0182 N.pl3   1  UNL1       -0.3316
      2 H          62.8227   87.7011   14.7507 H       1  UNL1        0.1468
      3 C          64.0446   89.1425   13.6898 C.ar    1  UNL1        0.0577
      4 C          65.1518   89.7122   14.5261 C.ar    1  UNL1        0.0462
      5 C          65.7225   91.0600   14.1976 C.ar    1  UNL1        0.1602
      6 F          66.8297   91.6297   15.0340 F       1  UNL1       -0.2027
      7 C          65.1859   91.8380   13.0329 C.ar    1  UNL1        0.1534
      8 C          64.0787   91.2683   12.1965 C.ar    1  UNL1        0.0351
      9 C          63.5080   89.9206   12.5250 C.ar    1  UNL1        0.0722
     10 CL         62.4008   89.3509   11.6886 Cl      1  UNL1       -0.0809
     11 S          65.7566   93.1857   12.7044 S.O2    1  UNL1        0.0772
     12 O          65.7634   92.8279   11.2478 O.2     1  UNL1       -0.1498
     13 O          65.7498   93.5436   14.1611 O.2     1  UNL1       -0.1498
     14 N          66.3274   94.5335   12.3759 N.pl3   1  UNL1       -0.1936
     15 H          66.5128   95.1784   13.0963 H       1  UNL1        0.1758
     16 C          66.6155   94.8986   10.9498 C.ar    1  UNL1        0.1786
     17 N          67.7129   94.3316   10.0990 N.ar    1  UNL1       -0.2214
     18 C          67.6324   94.9774    8.7475 C.ar    1  UNL1        0.1079
     19 C          66.4852   95.9436    8.7631 C.ar    1  UNL1        0.0588
     20 S          65.8566   95.8950   10.1242 S.2     1  UNL1       -0.0497
     21 C          63.8953   86.5897   13.2308 C.3     1  UNL1        0.0927
     22 N          64.3664   85.7109   16.0602 N.3     1  UNL1       -0.3219
     23 C          63.7066   84.7806   15.0860 C.3     1  UNL1        0.0568
     24 C          63.2824   83.4109   15.5264 C.3     1  UNL1        0.0205
     25 C          62.6226   82.4806   14.5521 C.3     1  UNL1        0.0271
     26 C          62.3870   82.9200   13.1374 C.2     1  UNL1       -0.0303
     27 C          62.8113   84.2896   12.6970 C.2     1  UNL1       -0.0238
     28 C          63.4710   85.2199   13.6713 C.3     1  UNL1        0.0557
     29 H          64.4461   85.2522   16.9678 H       1  UNL1        0.1188
     30 H          63.8053   86.5574   16.1553 H       1  UNL1        0.1188
     31 C          62.5757   84.7290   11.2822 C.ar    1  UNL1       -0.0040
     32 C          61.4829   85.7089   10.9733 C.ar    1  UNL1        0.0020
     33 C          61.2473   86.1483    9.5585 C.ar    1  UNL1        0.0296
     34 C          62.1047   85.6078    8.4527 C.ar    1  UNL1        0.1401
     35 F          61.8692   86.0472    7.0380 F       1  UNL1       -0.2042
     36 C          63.1976   84.6279    8.7617 C.ar    1  UNL1        0.0296
     37 C          63.4331   84.1885   10.1764 C.ar    1  UNL1        0.0020
@<TRIPOS>BOND
     1    23    22    1
     2    23    24    1
     3    24    25    1
     4    25    26    1
     5    26    27    2
     6    27    31    1
     7    31    32   ar
     8    32    33   ar
     9    33    34   ar
    10    34    35    1
    11    34    36   ar
    12    36    37   ar
    13    27    28    1
    14    28    21    1
    15    21     1    1
    16     1     3    1
    17     3     4   ar
    18     4     5   ar
    19     5     6    1
    20     5     7   ar
    21     7    11    1
    22    11    12    2
    23    11    13    2
    24    11    14    1
    25    14    16    1
    26    16    17   ar
    27    17    18   ar
    28    18    19   ar
    29    19    20   ar
    30     7     8   ar
    31     8     9   ar
    32     9    10    1
    33    28    23    1
    34     9     3   ar
    35    37    31   ar
    36    20    16   ar
    37    22    29    1
    38    22    30    1
    39     1     2    1
    40    14    15    1
@<TRIPOS>MOLECULE
*****
 37 40 0 0 0
SMALL
GASTEIGER

@<TRIPOS>ATOM
      1 N          63.2050   90.9272   12.9946 N.pl3   1  UNL1       -0.3316
      2 H          62.4799   91.4143   13.4488 H       1  UNL1        0.1468
      3 C          63.0311   89.4790   12.6447 C.ar    1  UNL1        0.0577
      4 C          63.7366   88.4242   13.4445 C.ar    1  UNL1        0.0462
      5 C          63.5627   86.9759   13.0946 C.ar    1  UNL1        0.1602
      6 F          64.2682   85.9212   13.8944 F       1  UNL1       -0.2027
      7 C          62.6834   86.5826   11.9448 C.ar    1  UNL1        0.1534
      8 C          61.9779   87.6374   11.1449 C.ar    1  UNL1        0.0351
      9 C          62.1518   89.0855   11.4949 C.ar    1  UNL1        0.0722
     10 CL         61.4463   90.1403   10.6951 Cl      1  UNL1       -0.0809
     11 S          62.5096   85.1344   11.5948 S.O2    1  UNL1        0.0772
     12 O          61.9924   84.8626   12.9764 O.2     1  UNL1       -0.1498
     13 O          63.0267   85.4061   10.2133 O.2     1  UNL1       -0.1498
     14 N          62.3357   83.6861   11.2449 N.pl3   1  UNL1       -0.1936
     15 H          61.9247   83.4329   10.3869 H       1  UNL1        0.1758
     16 C          62.7880   82.6237   12.2024 C.ar    1  UNL1        0.1786
     17 N          61.9214   81.5669   12.8206 N.ar    1  UNL1       -0.2214
     18 C          62.7841   80.7216   13.7100 C.ar    1  UNL1        0.1079
     19 C          64.1841   81.2559   13.6415 C.ar    1  UNL1        0.0588
     20 S          64.1865   82.4315   12.7097 S.2     1  UNL1       -0.0497
     21 C          64.4834   91.6332   12.6526 C.3     1  UNL1        0.0927
     22 N          63.7397   91.1876   15.5246 N.3     1  UNL1       -0.3219
     23 C          65.0396   91.8526   15.1809 C.3     1  UNL1        0.0568
     24 C          65.9677   92.2947   16.2732 C.3     1  UNL1        0.0205
     25 C          67.2676   92.9597   15.9296 C.3     1  UNL1        0.0271
     26 C          67.6394   93.1825   14.4936 C.2     1  UNL1       -0.0303
     27 C          66.7114   92.7403   13.4013 C.2     1  UNL1       -0.0238
     28 C          65.4115   92.0754   13.7450 C.3     1  UNL1        0.0557
     29 H          63.6510   91.1181   16.5383 H       1  UNL1        0.1188
     30 H          63.7176   90.2531   15.1165 H       1  UNL1        0.1188
     31 C          67.0832   92.9631   11.9653 C.ar    1  UNL1       -0.0040
     32 C          67.9810   91.9880   11.2630 C.ar    1  UNL1        0.0020
     33 C          68.3528   92.2108    9.8270 C.ar    1  UNL1        0.0296
     34 C          67.8269   93.4087    9.0932 C.ar    1  UNL1        0.1401
     35 F          68.1987   93.6315    7.6572 F       1  UNL1       -0.2042
     36 C          66.9291   94.3838    9.7956 C.ar    1  UNL1        0.0296
     37 C          66.5573   94.1610   11.2315 C.ar    1  UNL1        0.0020
@<TRIPOS>BOND
     1    23    22    1
     2    23    24    1
     3    24    25    1
     4    25    26    1
     5    26    27    2
     6    27    31    1
     7    31    32   ar
     8    32    33   ar
     9    33    34   ar
    10    34    35    1
    11    34    36   ar
    12    36    37   ar
    13    27    28    1
    14    28    21    1
    15    21     1    1
    16     1     3    1
    17     3     4   ar
    18     4     5   ar
    19     5     6    1
    20     5     7   ar
    21     7    11    1
    22    11    12    2
    23    11    13    2
    24    11    14    1
    25    14    16    1
    26    16    17   ar
    27    17    18   ar
    28    18    19   ar
    29    19    20   ar
    30     7     8   ar
    31     8     9   ar
    32     9    10    1
    33    28    23    1
    34     9     3   ar
    35    37    31   ar
    36    20    16   ar
    37    22    29    1
    38    22    30    1
    39     1     2    1
    40    14    15    1
@<TRIPOS>MOLECULE
*****
 37 40 0 0 0
SMALL
GASTEIGER

@<TRIPOS>ATOM
      1 N          62.5384   87.2413   13.0637 N.pl3   1  UNL1       -0.3316
      2 H          62.5855   86.8118   13.9483 H       1  UNL1        0.1468
      3 C          63.1817   88.5785   12.8440 C.ar    1  UNL1        0.0577
      4 C          62.7902   89.4138   11.6612 C.ar    1  UNL1        0.0462
      5 C          63.4335   90.7510   11.4416 C.ar    1  UNL1        0.1602
      6 F          63.0421   91.5863   10.2588 F       1  UNL1       -0.2027
      7 C          64.4682   91.2528   12.4047 C.ar    1  UNL1        0.1534
      8 C          64.8597   90.4174   13.5874 C.ar    1  UNL1        0.0351
      9 C          64.2164   89.0803   13.8071 C.ar    1  UNL1        0.0722
     10 CL         64.6078   88.2450   14.9899 Cl      1  UNL1       -0.0809
     11 S          65.1115   92.5899   12.1850 S.O2    1  UNL1        0.0772
     12 O          65.2475   92.7681   13.6681 O.2     1  UNL1       -0.1498
     13 O          64.9755   92.4116   10.7018 O.2     1  UNL1       -0.1498
     14 N          65.7548   93.9271   11.9653 N.pl3   1  UNL1       -0.1936
     15 H          65.6020   94.6581   12.6068 H       1  UNL1        0.1758
     16 C          66.6307   94.1503   10.7683 C.ar    1  UNL1        0.1786
     17 N          67.7567   93.2653   10.3223 N.ar    1  UNL1       -0.2214
     18 C          68.3564   93.8658    9.0855 C.ar    1  UNL1        0.1079
     19 C          67.6011   95.1220    8.7671 C.ar    1  UNL1        0.0588
     20 S          66.5345   95.2980    9.8071 S.2     1  UNL1       -0.0497
     21 C          61.8234   86.5586   11.9356 C.3     1  UNL1        0.0927
     22 N          63.7059   84.6222   13.2420 N.3     1  UNL1       -0.3219
     23 C          63.4785   84.5636   11.7605 C.3     1  UNL1        0.0568
     24 C          64.1924   83.5369   10.9322 C.3     1  UNL1        0.0205
     25 C          63.9651   83.4782    9.4507 C.3     1  UNL1        0.0271
     26 C          63.0239   84.4464    8.7975 C.2     1  UNL1       -0.0303
     27 C          62.3100   85.4731    9.6258 C.2     1  UNL1       -0.0238
     28 C          62.5373   85.5318   11.1073 C.3     1  UNL1        0.0557
     29 H          64.3701   83.8971   13.5130 H       1  UNL1        0.1188
     30 H          62.8217   84.4722   13.7279 H       1  UNL1        0.1188
     31 C          61.3687   86.4414    8.9726 C.ar    1  UNL1       -0.0040
     32 C          60.3454   85.9478    7.9932 C.ar    1  UNL1        0.0020
     33 C          59.4041   86.9160    7.3400 C.ar    1  UNL1        0.0296
     34 C          59.4862   88.3778    7.6662 C.ar    1  UNL1        0.1401
     35 F          58.5450   89.3460    7.0130 F       1  UNL1       -0.2042
     36 C          60.5096   88.8714    8.6456 C.ar    1  UNL1        0.0296
     37 C          61.4508   87.9032    9.2988 C.ar    1  UNL1        0.0020
@<TRIPOS>BOND
     1    23    22    1
     2    23    24    1
     3    24    25    1
     4    25    26    1
     5    26    27    2
     6    27    31    1
     7    31    32   ar
     8    32    33   ar
     9    33    34   ar
    10    34    35    1
    11    34    36   ar
    12    36    37   ar
    13    27    28    1
    14    28    21    1
    15    21     1    1
    16     1     3    1
    17     3     4   ar
    18     4     5   ar
    19     5     6    1
    20     5     7   ar
    21     7    11    1
    22    11    12    2
    23    11    13    2
    24    11    14    1
    25    14    16    1
    26    16    17   ar
    27    17    18   ar
    28    18    19   ar
    29    19    20   ar
    30     7     8   ar
    31     8     9   ar
    32     9    10    1
    33    28    23    1
    34     9     3   ar
    35    37    31   ar
    36    20    16   ar
    37    22    29    1
    38    22    30    1
    39     1     2    1
    40    14    15    1
@<TRIPOS>MOLECULE
*****
 37 40 0 0 0
SMALL
GASTEIGER

@<TRIPOS>ATOM
      1 N          60.8660   88.9508   12.0972 N.pl3   1  UNL1       -0.3316
      2 H          59.9652   89.3332   12.2047 H       1  UNL1        0.1468
      3 C          62.0632   89.8533   12.0503 C.ar    1  UNL1        0.0577
      4 C          62.3431   90.6646   10.8201 C.ar    1  UNL1        0.0462
      5 C          63.5404   91.5671   10.7733 C.ar    1  UNL1        0.1602
      6 F          63.8203   92.3784    9.5430 F       1  UNL1       -0.2027
      7 C          64.4575   91.6584   11.9566 C.ar    1  UNL1        0.1534
      8 C          64.1776   90.8471   13.1869 C.ar    1  UNL1        0.0351
      9 C          62.9805   89.9446   13.2337 C.ar    1  UNL1        0.0722
     10 CL         62.7005   89.1333   14.4640 Cl      1  UNL1       -0.0809
     11 S          65.6547   92.5609   11.9097 S.O2    1  UNL1        0.0772
     12 O          65.3538   93.0324   13.3015 O.2     1  UNL1       -0.1498
     13 O          65.9556   92.0895   10.5179 O.2     1  UNL1       -0.1498
     14 N          66.8519   93.4635   11.8629 N.pl3   1  UNL1       -0.1936
     15 H          67.5963   93.3269   12.4925 H       1  UNL1        0.1758
     16 C          66.9149   94.5742   10.8567 C.ar    1  UNL1        0.1786
     17 N          67.7945   94.6151    9.6424 N.ar    1  UNL1       -0.2214
     18 C          67.5325   95.9052    8.9234 C.ar    1  UNL1        0.1079
     19 C          66.4909   96.6617    9.6933 C.ar    1  UNL1        0.0588
     20 S          66.1091   95.8391   10.8882 S.2     1  UNL1       -0.0497
     21 C          61.0414   87.4657   11.9804 C.3     1  UNL1        0.0927
     22 N          59.9291   88.6402    9.4538 N.3     1  UNL1       -0.3219
     23 C          60.8267   87.4400    9.3913 C.3     1  UNL1        0.0568
     24 C          61.1682   86.8272    8.0655 C.3     1  UNL1        0.0205
     25 C          62.0658   85.6270    8.0030 C.3     1  UNL1        0.0271
     26 C          62.6220   85.0397    9.2662 C.2     1  UNL1       -0.0303
     27 C          62.2805   85.6526   10.5920 C.2     1  UNL1       -0.0238
     28 C          61.3828   86.8528   10.6545 C.3     1  UNL1        0.0557
     29 H          59.6462   88.9028    8.5097 H       1  UNL1        0.1188
     30 H          60.4291   89.4165    9.8872 H       1  UNL1        0.1188
     31 C          62.8366   85.0654   11.8553 C.ar    1  UNL1       -0.0040
     32 C          62.7379   83.5893   12.1031 C.ar    1  UNL1        0.0020
     33 C          63.2940   83.0020   13.3665 C.ar    1  UNL1        0.0296
     34 C          63.9488   83.8909   14.3819 C.ar    1  UNL1        0.1401
     35 F          64.5050   83.3037   15.6452 F       1  UNL1       -0.2042
     36 C          64.0476   85.3670   14.1340 C.ar    1  UNL1        0.0296
     37 C          63.4915   85.9542   12.8707 C.ar    1  UNL1        0.0020
@<TRIPOS>BOND
     1    23    22    1
     2    23    24    1
     3    24    25    1
     4    25    26    1
     5    26    27    2
     6    27    31    1
     7    31    32   ar
     8    32    33   ar
     9    33    34   ar
    10    34    35    1
    11    34    36   ar
    12    36    37   ar
    13    27    28    1
    14    28    21    1
    15    21     1    1
    16     1     3    1
    17     3     4   ar
    18     4     5   ar
    19     5     6    1
    20     5     7   ar
    21     7    11    1
    22    11    12    2
    23    11    13    2
    24    11    14    1
    25    14    16    1
    26    16    17   ar
    27    17    18   ar
    28    18    19   ar
    29    19    20   ar
    30     7     8   ar
    31     8     9   ar
    32     9    10    1
    33    28    23    1
    34     9     3   ar
    35    37    31   ar
    36    20    16   ar
    37    22    29    1
    38    22    30    1
    39     1     2    1
    40    14    15    1
