@<TRIPOS>MOLECULE
*****
 28 31 0 0 0
SMALL
GASTEIGER

@<TRIPOS>ATOM
      1 C          64.9070   90.4371   14.3555 C.ar    1  UNL1        0.0516
      2 C          64.0516   90.8352   13.1894 C.ar    1  UNL1        0.0147
      3 C          64.5069   91.9225   12.2618 C.ar    1  UNL1        0.0010
      4 C          65.8177   92.6117   12.5003 C.ar    1  UNL1       -0.0014
      5 C          66.6732   92.2137   13.6663 C.ar    1  UNL1        0.0010
      6 C          66.2178   91.1263   14.5939 C.ar    1  UNL1        0.0147
      7 C          66.2731   93.6990   11.5726 C.2     1  UNL1        0.0158
      8 C          65.8455   95.1167   11.8117 C.2     1  UNL1        0.0487
      9 C          66.3007   96.2040   10.8841 C.2     1  UNL1        0.2355
     10 N          67.1837   95.8736    9.7173 N.2     1  UNL1       -0.0325
     11 C          67.6112   94.4558    9.4782 C.2     1  UNL1        0.3799
     12 N          68.4715   93.8320    8.4196 N.2     1  UNL1       -0.0106
     13 C          68.5479   92.3591    8.6930 C.2     1  UNL1        0.3351
     14 N          67.7348   92.0727    9.9205 N.2     1  UNL1       -0.2103
     15 C          67.1559   93.3686   10.4059 C.3     1  UNL1        0.2404
     16 N          63.6873   86.8974   15.6715 N.am    1  UNL1       -0.2681
     17 C          64.1426   87.9846   14.7440 C.2     1  UNL1        0.3082
     18 O          64.2887   87.7068   13.2772 O.2     1  UNL1       -0.2522
     19 N          64.4517   89.3499   15.2831 N.am    1  UNL1       -0.2681
     20 H          63.5913   87.0798   16.6342 H       1  UNL1        0.1564
     21 H          64.3558   89.5323   16.2458 H       1  UNL1        0.1564
     22 C          64.3733   83.2230   12.0622 C.3     1  UNL1        0.0311
     23 C          63.7211   83.6950   13.3277 C.ar    1  UNL1       -0.0206
     24 C          62.7597   82.8017   14.0543 C.ar    1  UNL1       -0.0042
     25 C          62.1075   83.2738   15.3200 C.ar    1  UNL1        0.0010
     26 C          62.4167   84.6390   15.8590 C.ar    1  UNL1        0.0147
     27 C          63.3781   85.5321   15.1324 C.ar    1  UNL1        0.0513
     28 C          64.0303   85.0602   13.8668 C.ar    1  UNL1        0.0105
@<TRIPOS>BOND
     1    22    23    1
     2    23    24   ar
     3    24    25   ar
     4    25    26   ar
     5    26    27   ar
     6    27    16    1
     7    16    17   am
     8    17    18    2
     9    17    19   am
    10    19     1    1
    11     1     2   ar
    12     2     3   ar
    13     3     4   ar
    14     4     7    1
    15     7     8    2
    16     8     9    1
    17     9    10    2
    18    10    11    1
    19    11    12    2
    20    12    13    1
    21    13    14    2
    22    14    15    1
    23     4     5   ar
    24     5     6   ar
    25    27    28   ar
    26    28    23   ar
    27     6     1   ar
    28    15     7    1
    29    15    11    1
    30    16    20    1
    31    19    21    1
@<TRIPOS>MOLECULE
*****
 28 31 0 0 0
SMALL
GASTEIGER

@<TRIPOS>ATOM
      1 C          63.5658   87.5857   15.6365 C.ar    1  UNL1        0.0516
      2 C          63.1306   88.8144   16.3788 C.ar    1  UNL1        0.0147
      3 C          63.7379   90.1453   16.0476 C.ar    1  UNL1        0.0010
      4 C          64.7807   90.2476   14.9741 C.ar    1  UNL1       -0.0014
      5 C          65.2160   89.0190   14.2318 C.ar    1  UNL1        0.0010
      6 C          64.6085   87.6880   14.5630 C.ar    1  UNL1        0.0147
      7 C          65.3881   91.5785   14.6429 C.2     1  UNL1        0.0158
      8 C          66.0734   92.3770   15.7119 C.2     1  UNL1        0.0487
      9 C          66.6808   93.7079   15.3808 C.2     1  UNL1        0.2355
     10 N          66.6029   94.2404   13.9806 N.2     1  UNL1       -0.0325
     11 C          65.9176   93.4419   12.9117 C.2     1  UNL1        0.3799
     12 N          65.6862   93.7072   11.4536 N.2     1  UNL1       -0.0106
     13 C          64.9358   92.5402   10.8835 C.2     1  UNL1        0.3351
     14 N          64.7034   91.5537   11.9893 N.2     1  UNL1       -0.2103
     15 C          65.3102   92.1110   13.2428 C.3     1  UNL1        0.2404
     16 N          62.3806   83.8142   15.2900 N.am    1  UNL1       -0.2681
     17 C          62.9879   85.1450   14.9588 C.2     1  UNL1        0.3082
     18 O          63.6248   85.3663   13.6189 O.2     1  UNL1       -0.2522
     19 N          62.9585   86.2548   15.9676 N.am    1  UNL1       -0.2681
     20 H          61.9625   83.6690   16.1694 H       1  UNL1        0.1564
     21 H          62.5405   86.1097   16.8471 H       1  UNL1        0.1564
     22 C          63.7687   82.0167   10.6164 C.3     1  UNL1        0.0311
     23 C          63.1041   81.8056   11.9444 C.ar    1  UNL1       -0.0206
     24 C          62.4689   80.4848   12.2638 C.ar    1  UNL1       -0.0042
     25 C          61.8042   80.2738   13.5919 C.ar    1  UNL1        0.0010
     26 C          61.7748   81.3836   14.6006 C.ar    1  UNL1        0.0147
     27 C          62.4100   82.7044   14.2812 C.ar    1  UNL1        0.0513
     28 C          63.0746   82.9155   12.9532 C.ar    1  UNL1        0.0105
@<TRIPOS>BOND
     1    22    23    1
     2    23    24   ar
     3    24    25   ar
     4    25    26   ar
     5    26    27   ar
     6    27    16    1
     7    16    17   am
     8    17    18    2
     9    17    19   am
    10    19     1    1
    11     1     2   ar
    12     2     3   ar
    13     3     4   ar
    14     4     7    1
    15     7     8    2
    16     8     9    1
    17     9    10    2
    18    10    11    1
    19    11    12    2
    20    12    13    1
    21    13    14    2
    22    14    15    1
    23     4     5   ar
    24     5     6   ar
    25    27    28   ar
    26    28    23   ar
    27     6     1   ar
    28    15     7    1
    29    15    11    1
    30    16    20    1
    31    19    21    1
@<TRIPOS>MOLECULE
*****
 28 31 0 0 0
SMALL
GASTEIGER

@<TRIPOS>ATOM
      1 C          64.2110   90.1482   13.4061 C.ar    1  UNL1        0.0516
      2 C          63.4507   89.7288   12.1829 C.ar    1  UNL1        0.0147
      3 C          63.0762   88.2894   11.9894 C.ar    1  UNL1        0.0010
      4 C          63.4619   87.2691   13.0192 C.ar    1  UNL1       -0.0014
      5 C          64.2222   87.6884   14.2424 C.ar    1  UNL1        0.0010
      6 C          64.5967   89.1280   14.4358 C.ar    1  UNL1        0.0147
      7 C          63.0873   85.8296   12.8258 C.2     1  UNL1        0.0158
      8 C          62.8066   85.3062   11.4484 C.2     1  UNL1        0.0487
      9 C          62.4321   83.8668   11.2549 C.2     1  UNL1        0.2355
     10 N          62.3381   82.9505   12.4389 N.2     1  UNL1       -0.0325
     11 C          62.6188   83.4738   13.8163 C.2     1  UNL1        0.3799
     12 N          62.6056   82.8132   15.1629 N.2     1  UNL1       -0.0106
     13 C          62.9721   83.8445   16.1886 C.2     1  UNL1        0.3351
     14 N          63.2117   85.1425   15.4760 N.2     1  UNL1       -0.2103
     15 C          62.9934   84.9134   14.0097 C.3     1  UNL1        0.2404
     16 N          65.5667   93.8029   12.6613 N.am    1  UNL1       -0.2681
     17 C          65.1921   92.3635   12.4679 C.2     1  UNL1        0.3082
     18 O          65.4240   91.6997   11.1430 O.2     1  UNL1       -0.2522
     19 N          64.5856   91.5877   13.5995 N.am    1  UNL1       -0.2681
     20 H          65.4144   94.2386   13.5310 H       1  UNL1        0.1564
     21 H          64.4334   92.0234   14.4691 H       1  UNL1        0.1564
     22 C          68.1552   93.9107    8.1572 C.3     1  UNL1        0.0311
     23 C          67.4674   94.6326    9.2777 C.ar    1  UNL1       -0.0206
     24 C          67.3861   96.1304    9.2668 C.ar    1  UNL1       -0.0042
     25 C          66.6983   96.8523   10.3874 C.ar    1  UNL1        0.0010
     26 C          66.0918   96.0765   11.5189 C.ar    1  UNL1        0.0147
     27 C          66.1732   94.5788   11.5298 C.ar    1  UNL1        0.0513
     28 C          66.8609   93.8568   10.4093 C.ar    1  UNL1        0.0105
@<TRIPOS>BOND
     1    22    23    1
     2    23    24   ar
     3    24    25   ar
     4    25    26   ar
     5    26    27   ar
     6    27    16    1
     7    16    17   am
     8    17    18    2
     9    17    19   am
    10    19     1    1
    11     1     2   ar
    12     2     3   ar
    13     3     4   ar
    14     4     7    1
    15     7     8    2
    16     8     9    1
    17     9    10    2
    18    10    11    1
    19    11    12    2
    20    12    13    1
    21    13    14    2
    22    14    15    1
    23     4     5   ar
    24     5     6   ar
    25    27    28   ar
    26    28    23   ar
    27     6     1   ar
    28    15     7    1
    29    15    11    1
    30    16    20    1
    31    19    21    1
@<TRIPOS>MOLECULE
*****
 28 31 0 0 0
SMALL
GASTEIGER

@<TRIPOS>ATOM
      1 C          63.0449   88.2071   12.2886 C.ar    1  UNL1        0.0516
      2 C          63.8201   88.1300   13.5705 C.ar    1  UNL1        0.0147
      3 C          64.6068   89.3161   14.0438 C.ar    1  UNL1        0.0010
      4 C          64.6184   90.5795   13.2351 C.ar    1  UNL1       -0.0014
      5 C          63.8432   90.6567   11.9532 C.ar    1  UNL1        0.0010
      6 C          63.0565   89.4704   11.4800 C.ar    1  UNL1        0.0147
      7 C          65.4051   91.7657   13.7084 C.2     1  UNL1        0.0158
      8 C          65.8995   91.8216   15.1235 C.2     1  UNL1        0.0487
      9 C          66.6862   93.0077   15.5968 C.2     1  UNL1        0.2355
     10 N          66.9785   94.1381   14.6550 N.2     1  UNL1       -0.0325
     11 C          66.4841   94.0822   13.2400 C.2     1  UNL1        0.3799
     12 N          66.6163   95.0388   12.0922 N.2     1  UNL1       -0.0106
     13 C          65.9112   94.4438   10.9094 C.2     1  UNL1        0.3351
     14 N          65.3433   93.1195   11.3263 N.2     1  UNL1       -0.2103
     15 C          65.6974   92.8960   12.7667 C.3     1  UNL1        0.2404
     16 N          61.8695   84.4525   11.7677 N.am    1  UNL1       -0.2681
     17 C          62.6562   85.6387   12.2410 C.2     1  UNL1        0.3082
     18 O          63.8409   85.4427   13.1399 O.2     1  UNL1       -0.2522
     19 N          62.2582   87.0209   11.8153 N.am    1  UNL1       -0.2681
     20 H          61.0920   84.5812   11.1777 H       1  UNL1        0.1564
     21 H          61.4807   87.1496   11.2253 H       1  UNL1        0.1564
     22 C          63.0952   79.5497   10.5594 C.3     1  UNL1        0.0311
     23 C          62.8803   80.6189   11.5892 C.ar    1  UNL1       -0.0206
     24 C          63.0633   80.3059   13.0448 C.ar    1  UNL1       -0.0042
     25 C          62.8484   81.3752   14.0746 C.ar    1  UNL1        0.0010
     26 C          62.4505   82.7573   13.6489 C.ar    1  UNL1        0.0147
     27 C          62.2675   83.0703   12.1934 C.ar    1  UNL1        0.0513
     28 C          62.4824   82.0011   11.1635 C.ar    1  UNL1        0.0105
@<TRIPOS>BOND
     1    22    23    1
     2    23    24   ar
     3    24    25   ar
     4    25    26   ar
     5    26    27   ar
     6    27    16    1
     7    16    17   am
     8    17    18    2
     9    17    19   am
    10    19     1    1
    11     1     2   ar
    12     2     3   ar
    13     3     4   ar
    14     4     7    1
    15     7     8    2
    16     8     9    1
    17     9    10    2
    18    10    11    1
    19    11    12    2
    20    12    13    1
    21    13    14    2
    22    14    15    1
    23     4     5   ar
    24     5     6   ar
    25    27    28   ar
    26    28    23   ar
    27     6     1   ar
    28    15     7    1
    29    15    11    1
    30    16    20    1
    31    19    21    1
@<TRIPOS>MOLECULE
*****
 28 31 0 0 0
SMALL
GASTEIGER

@<TRIPOS>ATOM
      1 C          62.7604   88.6033   11.5903 C.ar    1  UNL1        0.0516
      2 C          63.4806   88.9256   12.8660 C.ar    1  UNL1        0.0147
      3 C          64.2488   90.2079   12.9902 C.ar    1  UNL1        0.0010
      4 C          64.2969   91.1680   11.8386 C.ar    1  UNL1       -0.0014
      5 C          63.5767   90.8457   10.5629 C.ar    1  UNL1        0.0010
      6 C          62.8085   89.5633   10.4388 C.ar    1  UNL1        0.0147
      7 C          65.0651   92.4503   11.9629 C.2     1  UNL1        0.0158
      8 C          65.1065   93.4141   10.8143 C.2     1  UNL1        0.0487
      9 C          65.8747   94.6964   10.9385 C.2     1  UNL1        0.2355
     10 N          66.6016   95.0150   12.2114 N.2     1  UNL1       -0.0325
     11 C          66.5602   94.0512   13.3600 C.2     1  UNL1        0.3799
     12 N          67.1740   94.0932   14.7280 N.2     1  UNL1       -0.0106
     13 C          66.7851   92.8368   15.4492 C.2     1  UNL1        0.3351
     14 N          65.9310   92.0183   14.5270 N.2     1  UNL1       -0.2103
     15 C          65.7920   92.7688   13.2357 C.3     1  UNL1        0.2404
     16 N          61.7834   84.7706   11.9157 N.am    1  UNL1       -0.2681
     17 C          62.5516   86.0529   12.0399 C.2     1  UNL1        0.3082
     18 O          63.8792   86.0673   12.7378 O.2     1  UNL1       -0.2522
     19 N          61.9922   87.3210   11.4661 N.am    1  UNL1       -0.2681
     20 H          60.9120   84.7613   11.4575 H       1  UNL1        0.1564
     21 H          61.1208   87.3116   11.0079 H       1  UNL1        0.1564
     22 C          62.9204   79.7247   11.4201 C.3     1  UNL1        0.0311
     23 C          62.9112   80.9796   12.2416 C.ar    1  UNL1       -0.0206
     24 C          63.4615   80.9666   13.6371 C.ar    1  UNL1       -0.0042
     25 C          63.4523   82.2216   14.4587 C.ar    1  UNL1        0.0010
     26 C          62.8929   83.4895   13.8848 C.ar    1  UNL1        0.0147
     27 C          62.3427   83.5026   12.4895 C.ar    1  UNL1        0.0513
     28 C          62.3519   82.2477   11.6678 C.ar    1  UNL1        0.0105
@<TRIPOS>BOND
     1    22    23    1
     2    23    24   ar
     3    24    25   ar
     4    25    26   ar
     5    26    27   ar
     6    27    16    1
     7    16    17   am
     8    17    18    2
     9    17    19   am
    10    19     1    1
    11     1     2   ar
    12     2     3   ar
    13     3     4   ar
    14     4     7    1
    15     7     8    2
    16     8     9    1
    17     9    10    2
    18    10    11    1
    19    11    12    2
    20    12    13    1
    21    13    14    2
    22    14    15    1
    23     4     5   ar
    24     5     6   ar
    25    27    28   ar
    26    28    23   ar
    27     6     1   ar
    28    15     7    1
    29    15    11    1
    30    16    20    1
    31    19    21    1
@<TRIPOS>MOLECULE
*****
 28 31 0 0 0
SMALL
GASTEIGER

@<TRIPOS>ATOM
      1 C          62.8146   87.1482   12.1297 C.ar    1  UNL1        0.0516
      2 C          62.1606   86.5423   10.9234 C.ar    1  UNL1        0.0147
      3 C          62.1832   85.0558   10.7251 C.ar    1  UNL1        0.0010
      4 C          62.8599   84.1748   11.7332 C.ar    1  UNL1       -0.0014
      5 C          63.5139   84.7806   12.9396 C.ar    1  UNL1        0.0010
      6 C          63.4913   86.2673   13.1378 C.ar    1  UNL1        0.0147
      7 C          62.8825   82.6882   11.5349 C.2     1  UNL1        0.0158
      8 C          63.4179   82.1098   10.2586 C.2     1  UNL1        0.0487
      9 C          63.4405   80.6232   10.0603 C.2     1  UNL1        0.2355
     10 N          62.9278   79.7148   11.1383 N.2     1  UNL1       -0.0325
     11 C          62.3925   80.2932   12.4146 C.2     1  UNL1        0.3799
     12 N          61.8240   79.6525   13.6460 N.2     1  UNL1       -0.0106
     13 C          61.4500   80.7433   14.6054 C.2     1  UNL1        0.3351
     14 N          61.7874   82.0580   13.9669 N.2     1  UNL1       -0.2103
     15 C          62.3698   81.7798   12.6129 C.3     1  UNL1        0.2404
     16 N          63.6903   90.7591   13.5239 N.am    1  UNL1       -0.2681
     17 C          63.7129   89.2726   13.3256 C.2     1  UNL1        0.3082
     18 O          64.6565   88.4236   14.1249 O.2     1  UNL1       -0.2522
     19 N          62.7920   88.6348   12.3280 N.am    1  UNL1       -0.2681
     20 H          63.0710   91.3163   12.9993 H       1  UNL1        0.1564
     21 H          62.1727   89.1920   11.8034 H       1  UNL1        0.1564
     22 C          68.3449   92.7248   14.7369 C.3     1  UNL1        0.0311
     23 C          66.9385   92.3797   15.1280 C.ar    1  UNL1       -0.0206
     24 C          66.4530   92.6724   16.5168 C.ar    1  UNL1       -0.0042
     25 C          65.0466   92.3273   16.9079 C.ar    1  UNL1        0.0010
     26 C          64.1257   91.6896   15.9102 C.ar    1  UNL1        0.0147
     27 C          64.6113   91.3969   14.5215 C.ar    1  UNL1        0.0513
     28 C          66.0176   91.7419   14.1303 C.ar    1  UNL1        0.0105
@<TRIPOS>BOND
     1    22    23    1
     2    23    24   ar
     3    24    25   ar
     4    25    26   ar
     5    26    27   ar
     6    27    16    1
     7    16    17   am
     8    17    18    2
     9    17    19   am
    10    19     1    1
    11     1     2   ar
    12     2     3   ar
    13     3     4   ar
    14     4     7    1
    15     7     8    2
    16     8     9    1
    17     9    10    2
    18    10    11    1
    19    11    12    2
    20    12    13    1
    21    13    14    2
    22    14    15    1
    23     4     5   ar
    24     5     6   ar
    25    27    28   ar
    26    28    23   ar
    27     6     1   ar
    28    15     7    1
    29    15    11    1
    30    16    20    1
    31    19    21    1
@<TRIPOS>MOLECULE
*****
 28 31 0 0 0
SMALL
GASTEIGER

@<TRIPOS>ATOM
      1 C          64.5228   89.7155   13.9922 C.ar    1  UNL1        0.0516
      2 C          65.7207   90.4399   14.5311 C.ar    1  UNL1        0.0147
      3 C          66.2437   91.6546   13.8234 C.ar    1  UNL1        0.0010
      4 C          65.5687   92.1451   12.5767 C.ar    1  UNL1       -0.0014
      5 C          64.3708   91.4207   12.0379 C.ar    1  UNL1        0.0010
      6 C          63.8479   90.2059   12.7456 C.ar    1  UNL1        0.0147
      7 C          66.0917   93.3598   11.8690 C.2     1  UNL1        0.0158
      8 C          65.6982   94.7290   12.3388 C.2     1  UNL1        0.0487
      9 C          66.2211   95.9437   11.6311 C.2     1  UNL1        0.2355
     10 N          67.1376   95.7894   10.4537 N.2     1  UNL1       -0.0325
     11 C          67.5311   94.4203    9.9839 C.2     1  UNL1        0.3799
     12 N          68.4119   93.9592    8.8608 N.2     1  UNL1       -0.0106
     13 C          68.4333   92.4594    8.8743 C.2     1  UNL1        0.3351
     14 N          67.5657   91.9936   10.0058 N.2     1  UNL1       -0.2103
     15 C          67.0081   93.2055   10.6916 C.3     1  UNL1        0.2404
     16 N          63.1991   86.0300   14.6360 N.am    1  UNL1       -0.2681
     17 C          63.7220   87.2447   13.9283 C.2     1  UNL1        0.3082
     18 O          63.9671   87.2035   12.4491 O.2     1  UNL1       -0.2522
     19 N          63.9999   88.5008   14.6999 N.am    1  UNL1       -0.2681
     20 H          63.0383   86.0571   15.6069 H       1  UNL1        0.1564
     21 H          63.8390   88.5278   15.6708 H       1  UNL1        0.1564
     22 C          61.5909   81.0907   14.5072 C.3     1  UNL1        0.0311
     23 C          62.1171   82.3043   13.8001 C.ar    1  UNL1       -0.0206
     24 C          62.3656   82.2620   12.3213 C.ar    1  UNL1       -0.0042
     25 C          62.8919   83.4757   11.6142 C.ar    1  UNL1        0.0010
     26 C          63.1697   84.7317   12.3858 C.ar    1  UNL1        0.0147
     27 C          62.9213   84.7739   13.8645 C.ar    1  UNL1        0.0513
     28 C          62.3950   83.5604   14.5716 C.ar    1  UNL1        0.0105
@<TRIPOS>BOND
     1    22    23    1
     2    23    24   ar
     3    24    25   ar
     4    25    26   ar
     5    26    27   ar
     6    27    16    1
     7    16    17   am
     8    17    18    2
     9    17    19   am
    10    19     1    1
    11     1     2   ar
    12     2     3   ar
    13     3     4   ar
    14     4     7    1
    15     7     8    2
    16     8     9    1
    17     9    10    2
    18    10    11    1
    19    11    12    2
    20    12    13    1
    21    13    14    2
    22    14    15    1
    23     4     5   ar
    24     5     6   ar
    25    27    28   ar
    26    28    23   ar
    27     6     1   ar
    28    15     7    1
    29    15    11    1
    30    16    20    1
    31    19    21    1
@<TRIPOS>MOLECULE
*****
 28 31 0 0 0
SMALL
GASTEIGER

@<TRIPOS>ATOM
      1 C          63.1173   86.8399   12.5712 C.ar    1  UNL1        0.0516
      2 C          62.3789   86.0865   11.5047 C.ar    1  UNL1        0.0147
      3 C          62.1586   84.6096   11.6457 C.ar    1  UNL1        0.0010
      4 C          62.6766   83.8858   12.8532 C.ar    1  UNL1       -0.0014
      5 C          63.4151   84.6391   13.9196 C.ar    1  UNL1        0.0010
      6 C          63.6354   86.1162   13.7786 C.ar    1  UNL1        0.0147
      7 C          62.4563   82.4088   12.9942 C.2     1  UNL1        0.0158
      8 C          61.9218   81.8496   14.2793 C.2     1  UNL1        0.0487
      9 C          61.7014   80.3726   14.4203 C.2     1  UNL1        0.2355
     10 N          62.0156   79.4548   13.2762 N.2     1  UNL1       -0.0325
     11 C          62.5501   80.0140   11.9911 C.2     1  UNL1        0.3799
     12 N          62.9480   79.3607   10.7008 N.2     1  UNL1       -0.0106
     13 C          63.4143   80.4340    9.7624 C.2     1  UNL1        0.3351
     14 N          63.3046   81.7506   10.4726 N.2     1  UNL1       -0.2103
     15 C          62.7704   81.4911   11.8501 C.3     1  UNL1        0.2404
     16 N          64.3587   90.5344   13.3190 N.am    1  UNL1       -0.2681
     17 C          64.1383   89.0575   13.4600 C.2     1  UNL1        0.3082
     18 O          64.7186   88.3210   14.6309 O.2     1  UNL1       -0.2522
     19 N          63.3377   88.3168   12.4302 N.am    1  UNL1       -0.2681
     20 H          63.9778   91.0177   12.5506 H       1  UNL1        0.1564
     21 H          62.9568   88.8002   11.6617 H       1  UNL1        0.1564
     22 C          68.8488   92.6420   14.8671 C.3     1  UNL1        0.0311
     23 C          67.4044   92.3288   15.1229 C.ar    1  UNL1       -0.0206
     24 C          66.7605   92.7562   16.4086 C.ar    1  UNL1       -0.0042
     25 C          65.3160   92.4429   16.6643 C.ar    1  UNL1        0.0010
     26 C          64.5155   91.7023   15.6345 C.ar    1  UNL1        0.0147
     27 C          65.1593   91.2750   14.3489 C.ar    1  UNL1        0.0513
     28 C          66.6037   91.5882   14.0930 C.ar    1  UNL1        0.0105
@<TRIPOS>BOND
     1    22    23    1
     2    23    24   ar
     3    24    25   ar
     4    25    26   ar
     5    26    27   ar
     6    27    16    1
     7    16    17   am
     8    17    18    2
     9    17    19   am
    10    19     1    1
    11     1     2   ar
    12     2     3   ar
    13     3     4   ar
    14     4     7    1
    15     7     8    2
    16     8     9    1
    17     9    10    2
    18    10    11    1
    19    11    12    2
    20    12    13    1
    21    13    14    2
    22    14    15    1
    23     4     5   ar
    24     5     6   ar
    25    27    28   ar
    26    28    23   ar
    27     6     1   ar
    28    15     7    1
    29    15    11    1
    30    16    20    1
    31    19    21    1
@<TRIPOS>MOLECULE
*****
 28 31 0 0 0
SMALL
GASTEIGER

@<TRIPOS>ATOM
      1 C          62.6498   90.2809   13.1023 C.ar    1  UNL1        0.0516
      2 C          63.4624   91.2552   12.3019 C.ar    1  UNL1        0.0147
      3 C          64.7268   91.8249   12.8734 C.ar    1  UNL1        0.0010
      4 C          65.1787   91.4203   14.2453 C.ar    1  UNL1       -0.0014
      5 C          64.3662   90.4461   15.0457 C.ar    1  UNL1        0.0010
      6 C          63.1018   89.8764   14.4742 C.ar    1  UNL1        0.0147
      7 C          66.4432   91.9901   14.8168 C.2     1  UNL1        0.0158
      8 C          66.4290   92.6403   16.1685 C.2     1  UNL1        0.0487
      9 C          67.6934   93.2100   16.7400 C.2     1  UNL1        0.2355
     10 N          68.9721   93.1295   15.9598 N.2     1  UNL1       -0.0325
     11 C          68.9862   92.4794   14.6081 C.2     1  UNL1        0.3799
     12 N          70.0868   92.2543   13.6142 N.2     1  UNL1       -0.0106
     13 C          69.5026   91.5454   12.4284 C.2     1  UNL1        0.3351
     14 N          68.0409   91.3324   12.6894 N.2     1  UNL1       -0.2103
     15 C          67.7218   91.9096   14.0366 C.3     1  UNL1        0.2404
     16 N          60.1770   88.2554   10.7503 N.am    1  UNL1       -0.2681
     17 C          61.4414   88.8251   11.3217 C.2     1  UNL1        0.3082
     18 O          62.7618   88.5088   10.6843 O.2     1  UNL1       -0.2522
     19 N          61.3855   89.7112   12.5308 N.am    1  UNL1       -0.2681
     20 H          59.3104   88.4631   11.1687 H       1  UNL1        0.1564
     21 H          60.5188   89.9189   12.9492 H       1  UNL1        0.1564
     22 C          62.7766   84.9170    7.7341 C.3     1  UNL1        0.0311
     23 C          61.5328   85.7001    8.0331 C.ar    1  UNL1       -0.0206
     24 C          60.3447   85.5972    7.1231 C.ar    1  UNL1       -0.0042
     25 C          59.1008   86.3803    7.4222 C.ar    1  UNL1        0.0010
     26 C          59.0449   87.2664    8.6313 C.ar    1  UNL1        0.0147
     27 C          60.2330   87.3693    9.5412 C.ar    1  UNL1        0.0513
     28 C          61.4769   86.5863    9.2422 C.ar    1  UNL1        0.0105
@<TRIPOS>BOND
     1    22    23    1
     2    23    24   ar
     3    24    25   ar
     4    25    26   ar
     5    26    27   ar
     6    27    16    1
     7    16    17   am
     8    17    18    2
     9    17    19   am
    10    19     1    1
    11     1     2   ar
    12     2     3   ar
    13     3     4   ar
    14     4     7    1
    15     7     8    2
    16     8     9    1
    17     9    10    2
    18    10    11    1
    19    11    12    2
    20    12    13    1
    21    13    14    2
    22    14    15    1
    23     4     5   ar
    24     5     6   ar
    25    27    28   ar
    26    28    23   ar
    27     6     1   ar
    28    15     7    1
    29    15    11    1
    30    16    20    1
    31    19    21    1
