@<TRIPOS>MOLECULE
*****
 36 39 0 0 0
SMALL
GASTEIGER

@<TRIPOS>ATOM
      1 C          61.9435   88.4893   11.2121 C.3     1  UNL1        0.0776
      2 C          63.6464   89.3003   12.9990 C.ar    1  UNL1        0.2211
      3 N          64.6761   90.2901   13.4573 N.ar    1  UNL1       -0.2119
      4 C          65.0326   91.4587   12.5871 C.ar    1  UNL1        0.0844
      5 C          66.0623   92.4485   13.0454 C.ar    1  UNL1        0.0197
      6 C          66.4188   93.6171   12.1753 C.ar    1  UNL1        0.0082
      7 C          65.7457   93.7959   10.8468 C.ar    1  UNL1        0.0347
      8 BR         66.1023   94.9646    9.9766 Br      1  UNL1       -0.0490
      9 C          64.7160   92.8062   10.3885 C.ar    1  UNL1        0.0082
     10 C          64.3595   91.6376   11.2586 C.ar    1  UNL1        0.0181
     11 C          63.3298   90.6478   10.8003 C.ar    1  UNL1        0.0023
     12 C          62.9732   89.4792   11.6705 C.ar    1  UNL1        0.0373
     13 C          64.3687   87.3675   14.5777 C.3     1  UNL1        0.2542
     14 O          63.2898   88.1316   13.8691 O.3     1  UNL1       -0.4563
     15 C          62.3731   87.1728   10.6358 C.ar    1  UNL1       -0.0160
     16 C          62.8459   87.0948    9.2144 C.ar    1  UNL1       -0.0039
     17 C          63.2755   85.7783    8.6380 C.ar    1  UNL1       -0.0006
     18 C          63.2322   84.5397    9.4830 C.ar    1  UNL1       -0.0043
     19 C          62.7593   84.6176   10.9044 C.ar    1  UNL1       -0.0222
     20 C          62.7160   83.3791   11.7494 C.3     1  UNL1        0.0310
     21 C          62.3297   85.9342   11.4808 C.ar    1  UNL1       -0.0081
     22 C          60.4843   88.8161   11.3302 C.3     1  UNL1        0.1169
     23 O          60.7190   89.3670   12.7055 O.3     1  UNL1       -0.3819
     24 H          59.8973   89.7576   13.0418 H       1  UNL1        0.2107
     25 C          60.2497   88.2651    9.9550 C.ar    1  UNL1        0.0160
     26 C          59.9054   86.8161    9.7761 C.ar    1  UNL1        0.0007
     27 C          59.6707   86.2652    8.4009 C.ar    1  UNL1        0.0204
     28 C          59.7804   87.1632    7.2044 C.ar    1  UNL1        0.0984
     29 N          60.1246   88.6121    7.3832 N.ar    1  UNL1       -0.2484
     30 C          60.3593   89.1631    8.7585 C.ar    1  UNL1        0.0576
     31 C          60.7036   90.6121    8.9373 C.3     1  UNL1        0.0518
     32 C          59.0252   89.1428   11.4483 C.3     1  UNL1        0.0491
     33 C          58.4694   89.6327   12.7526 C.3     1  UNL1        0.0750
     34 N          57.9675   88.6513   13.7700 N.3     1  UNL1       -0.2702
     35 C          56.6514   87.9624   13.5619 C.3     1  UNL1        0.0897
     36 C          58.7817   88.3588   14.9953 C.3     1  UNL1        0.0897
@<TRIPOS>BOND
     1    13    14    1
     2    14     2    1
     3     2     3   ar
     4     3     4   ar
     5     4     5   ar
     6     5     6   ar
     7     6     7   ar
     8     7     8    1
     9     7     9   ar
    10     9    10   ar
    11    10    11   ar
    12    11    12   ar
    13    12     1    1
    14     1    15    1
    15    15    16   ar
    16    16    17   ar
    17    17    18   ar
    18    18    19   ar
    19    19    20    1
    20    19    21   ar
    21     1    22    1
    22    22    23    1
    23    22    32    1
    24    32    33    1
    25    33    34    1
    26    34    35    1
    27    34    36    1
    28    22    25    1
    29    25    26   ar
    30    26    27   ar
    31    27    28   ar
    32    28    29   ar
    33    29    30   ar
    34    30    31    1
    35    12     2   ar
    36    21    15   ar
    37    30    25   ar
    38    10     4   ar
    39    23    24    1
@<TRIPOS>MOLECULE
*****
 36 39 0 0 0
SMALL
GASTEIGER

@<TRIPOS>ATOM
      1 C          61.6942   88.0593    9.9424 C.3     1  UNL1        0.0776
      2 C          62.7035   85.7339    9.3732 C.ar    1  UNL1        0.2211
      3 N          63.2943   84.4296    9.8201 N.ar    1  UNL1       -0.2119
      4 C          63.4667   84.1462   11.2830 C.ar    1  UNL1        0.0844
      5 C          64.0575   82.8419   11.7298 C.ar    1  UNL1        0.0197
      6 C          64.2298   82.5587   13.1927 C.ar    1  UNL1        0.0082
      7 C          63.8113   83.5797   14.2087 C.ar    1  UNL1        0.0347
      8 BR         63.9836   83.2964   15.6717 Br      1  UNL1       -0.0490
      9 C          63.2205   84.8840   13.7619 C.ar    1  UNL1        0.0082
     10 C          63.0482   85.1673   12.2990 C.ar    1  UNL1        0.0181
     11 C          62.4574   86.4717   11.8521 C.ar    1  UNL1        0.0023
     12 C          62.2851   86.7549   10.3893 C.ar    1  UNL1        0.0373
     13 C          62.2440   84.8946    6.9577 C.3     1  UNL1        0.2542
     14 O          62.5312   86.0172    7.9103 O.3     1  UNL1       -0.4563
     15 C          60.5993   88.0746    8.9173 C.ar    1  UNL1       -0.0160
     16 C          59.6356   86.9283    8.8320 C.ar    1  UNL1       -0.0039
     17 C          58.5407   86.9436    7.8069 C.ar    1  UNL1       -0.0006
     18 C          58.4094   88.1052    6.8670 C.ar    1  UNL1       -0.0043
     19 C          59.3731   89.2516    6.9522 C.ar    1  UNL1       -0.0222
     20 C          59.2418   90.4132    6.0124 C.3     1  UNL1        0.0310
     21 C          60.4680   89.2363    7.9774 C.ar    1  UNL1       -0.0081
     22 C          62.1983   89.3482   10.5206 C.3     1  UNL1        0.1169
     23 O          63.3003   89.3736    9.5033 O.3     1  UNL1       -0.3819
     24 H          63.7961   90.2034    9.5843 H       1  UNL1        0.2107
     25 C          61.0964   89.3229   11.5379 C.ar    1  UNL1        0.0160
     26 C          59.6685   89.2028   11.0941 C.ar    1  UNL1        0.0007
     27 C          58.5666   89.1774   12.1115 C.ar    1  UNL1        0.0204
     28 C          58.8924   89.2721   13.5726 C.ar    1  UNL1        0.0984
     29 N          60.3201   89.3921   14.0164 N.ar    1  UNL1       -0.2484
     30 C          61.4222   89.4175   12.9990 C.ar    1  UNL1        0.0576
     31 C          62.8500   89.5376   13.4429 C.3     1  UNL1        0.0518
     32 C          62.7025   90.6372   11.0988 C.3     1  UNL1        0.0491
     33 C          63.7115   91.4530   10.3462 C.3     1  UNL1        0.0750
     34 N          64.7705   92.2098   11.0917 N.3     1  UNL1       -0.2702
     35 C          64.9593   91.9835   12.5625 C.3     1  UNL1        0.0897
     36 C          65.6408   93.1929   10.3664 C.3     1  UNL1        0.0897
@<TRIPOS>BOND
     1    13    14    1
     2    14     2    1
     3     2     3   ar
     4     3     4   ar
     5     4     5   ar
     6     5     6   ar
     7     6     7   ar
     8     7     8    1
     9     7     9   ar
    10     9    10   ar
    11    10    11   ar
    12    11    12   ar
    13    12     1    1
    14     1    15    1
    15    15    16   ar
    16    16    17   ar
    17    17    18   ar
    18    18    19   ar
    19    19    20    1
    20    19    21   ar
    21     1    22    1
    22    22    23    1
    23    22    32    1
    24    32    33    1
    25    33    34    1
    26    34    35    1
    27    34    36    1
    28    22    25    1
    29    25    26   ar
    30    26    27   ar
    31    27    28   ar
    32    28    29   ar
    33    29    30   ar
    34    30    31    1
    35    12     2   ar
    36    21    15   ar
    37    30    25   ar
    38    10     4   ar
    39    23    24    1
@<TRIPOS>MOLECULE
*****
 36 39 0 0 0
SMALL
GASTEIGER

@<TRIPOS>ATOM
      1 C          62.0603   87.6260   10.8266 C.3     1  UNL1        0.0776
      2 C          63.4409   87.2186   12.9895 C.ar    1  UNL1        0.2211
      3 N          63.9729   86.2828   14.0341 N.ar    1  UNL1       -0.2119
      4 C          63.6563   84.8184   13.9604 C.ar    1  UNL1        0.0844
      5 C          64.1883   83.8826   15.0050 C.ar    1  UNL1        0.0197
      6 C          63.8717   82.4183   14.9314 C.ar    1  UNL1        0.0082
      7 C          63.0230   81.8898   13.8131 C.ar    1  UNL1        0.0347
      8 BR         62.7064   80.4254   13.7395 Br      1  UNL1       -0.0490
      9 C          62.4910   82.8256   12.7685 C.ar    1  UNL1        0.0082
     10 C          62.8076   84.2899   12.8422 C.ar    1  UNL1        0.0181
     11 C          62.2756   85.2258   11.7976 C.ar    1  UNL1        0.0023
     12 C          62.5923   86.6901   11.8712 C.ar    1  UNL1        0.0373
     13 C          64.1841   89.2935   14.3651 C.3     1  UNL1        0.2542
     14 O          63.7576   88.6830   13.0631 O.3     1  UNL1       -0.4563
     15 C          61.3415   87.0815    9.6279 C.ar    1  UNL1       -0.0160
     16 C          59.8974   87.4184    9.4022 C.ar    1  UNL1       -0.0039
     17 C          59.1787   86.8739    8.2035 C.ar    1  UNL1       -0.0006
     18 C          59.9041   85.9925    7.2304 C.ar    1  UNL1       -0.0043
     19 C          61.3483   85.6555    7.4561 C.ar    1  UNL1       -0.0222
     20 C          62.0737   84.7741    6.4830 C.3     1  UNL1        0.0310
     21 C          62.0670   86.2000    8.6548 C.ar    1  UNL1       -0.0081
     22 C          62.2470   89.1063   10.9808 C.3     1  UNL1        0.1169
     23 O          63.6073   88.9995   10.3579 O.3     1  UNL1       -0.3819
     24 H          63.9813   89.8873   10.2438 H       1  UNL1        0.2107
     25 C          60.8866   89.2130   11.6036 C.ar    1  UNL1        0.0160
     26 C          60.6313   88.6137   12.9549 C.ar    1  UNL1        0.0007
     27 C          59.2710   88.7204   13.5778 C.ar    1  UNL1        0.0204
     28 C          58.1659   89.4264   12.8495 C.ar    1  UNL1        0.0984
     29 N          58.4212   90.0257   11.4984 N.ar    1  UNL1       -0.2484
     30 C          59.7816   89.9190   10.8754 C.ar    1  UNL1        0.0576
     31 C          60.0368   90.5183    9.5242 C.3     1  UNL1        0.0518
     32 C          62.4337   90.5866   11.1349 C.3     1  UNL1        0.0491
     33 C          63.5172   91.2893   10.3719 C.3     1  UNL1        0.0750
     34 N          64.6171   91.9945   11.1088 N.3     1  UNL1       -0.2702
     35 C          64.6697   91.9422   12.6070 C.3     1  UNL1        0.0897
     36 C          65.6644   92.7519   10.3476 C.3     1  UNL1        0.0897
@<TRIPOS>BOND
     1    13    14    1
     2    14     2    1
     3     2     3   ar
     4     3     4   ar
     5     4     5   ar
     6     5     6   ar
     7     6     7   ar
     8     7     8    1
     9     7     9   ar
    10     9    10   ar
    11    10    11   ar
    12    11    12   ar
    13    12     1    1
    14     1    15    1
    15    15    16   ar
    16    16    17   ar
    17    17    18   ar
    18    18    19   ar
    19    19    20    1
    20    19    21   ar
    21     1    22    1
    22    22    23    1
    23    22    32    1
    24    32    33    1
    25    33    34    1
    26    34    35    1
    27    34    36    1
    28    22    25    1
    29    25    26   ar
    30    26    27   ar
    31    27    28   ar
    32    28    29   ar
    33    29    30   ar
    34    30    31    1
    35    12     2   ar
    36    21    15   ar
    37    30    25   ar
    38    10     4   ar
    39    23    24    1
@<TRIPOS>MOLECULE
*****
 36 39 0 0 0
SMALL
GASTEIGER

@<TRIPOS>ATOM
      1 C          62.6991   89.4027   12.5424 C.3     1  UNL1        0.0776
      2 C          64.0378   91.1883   13.8726 C.ar    1  UNL1        0.2211
      3 N          64.9879   92.3488   13.8959 N.ar    1  UNL1       -0.2119
      4 C          65.5493   92.8844   12.6121 C.ar    1  UNL1        0.0844
      5 C          66.4994   94.0449   12.6353 C.ar    1  UNL1        0.0197
      6 C          67.0607   94.5803   11.3516 C.ar    1  UNL1        0.0082
      7 C          66.6721   93.9553   10.0445 C.ar    1  UNL1        0.0347
      8 BR         67.2335   94.4908    8.7607 Br      1  UNL1       -0.0490
      9 C          65.7220   92.7948   10.0213 C.ar    1  UNL1        0.0082
     10 C          65.1607   92.2593   11.3051 C.ar    1  UNL1        0.0181
     11 C          64.2106   91.0987   11.2819 C.ar    1  UNL1        0.0023
     12 C          63.6492   90.5633   12.5656 C.ar    1  UNL1        0.0373
     13 C          63.8831   91.2628   16.4651 C.3     1  UNL1        0.2542
     14 O          63.4764   90.6528   15.1564 O.3     1  UNL1       -0.4563
     15 C          61.2378   89.6346   12.2958 C.ar    1  UNL1       -0.0160
     16 C          60.8002   90.6328   11.2653 C.ar    1  UNL1       -0.0039
     17 C          59.3389   90.8647   11.0187 C.ar    1  UNL1       -0.0006
     18 C          58.3152   90.0983   11.8026 C.ar    1  UNL1       -0.0043
     19 C          58.7527   89.1000   12.8332 C.ar    1  UNL1       -0.0222
     20 C          57.7289   88.3336   13.6170 C.3     1  UNL1        0.0310
     21 C          60.2140   88.8681   13.0798 C.ar    1  UNL1       -0.0081
     22 C          63.2103   88.0104   12.7658 C.3     1  UNL1        0.1169
     23 O          63.8399   88.4483   14.0549 O.3     1  UNL1       -0.3819
     24 H          64.2177   87.6785   14.5082 H       1  UNL1        0.2107
     25 C          62.5808   87.5724   11.4768 C.ar    1  UNL1        0.0160
     26 C          62.6123   88.4776   10.2811 C.ar    1  UNL1        0.0007
     27 C          61.9828   88.0396    8.9920 C.ar    1  UNL1        0.0204
     28 C          61.3217   86.6964    8.8985 C.ar    1  UNL1        0.0984
     29 N          61.2901   85.7912   10.0941 N.ar    1  UNL1       -0.2484
     30 C          61.9197   86.2292   11.3833 C.ar    1  UNL1        0.0576
     31 C          61.8881   85.3239   12.5789 C.3     1  UNL1        0.0518
     32 C          63.7215   86.6180   12.9893 C.3     1  UNL1        0.0491
     33 C          64.5546   86.3098   14.1980 C.3     1  UNL1        0.0750
     34 N          64.0239   85.3943   15.2611 N.3     1  UNL1       -0.2702
     35 C          64.1288   83.9076   15.0913 C.3     1  UNL1        0.0897
     36 C          63.3882   85.9654   16.4939 C.3     1  UNL1        0.0897
@<TRIPOS>BOND
     1    13    14    1
     2    14     2    1
     3     2     3   ar
     4     3     4   ar
     5     4     5   ar
     6     5     6   ar
     7     6     7   ar
     8     7     8    1
     9     7     9   ar
    10     9    10   ar
    11    10    11   ar
    12    11    12   ar
    13    12     1    1
    14     1    15    1
    15    15    16   ar
    16    16    17   ar
    17    17    18   ar
    18    18    19   ar
    19    19    20    1
    20    19    21   ar
    21     1    22    1
    22    22    23    1
    23    22    32    1
    24    32    33    1
    25    33    34    1
    26    34    35    1
    27    34    36    1
    28    22    25    1
    29    25    26   ar
    30    26    27   ar
    31    27    28   ar
    32    28    29   ar
    33    29    30   ar
    34    30    31    1
    35    12     2   ar
    36    21    15   ar
    37    30    25   ar
    38    10     4   ar
    39    23    24    1
@<TRIPOS>MOLECULE
*****
 36 39 0 0 0
SMALL
GASTEIGER

@<TRIPOS>ATOM
      1 C          62.8289   89.7803   11.9384 C.3     1  UNL1        0.0776
      2 C          63.2431   89.0099   14.3848 C.ar    1  UNL1        0.2211
      3 N          63.5446   87.9198   15.3701 N.ar    1  UNL1       -0.2119
      4 C          63.7334   86.5099   14.8942 C.ar    1  UNL1        0.0844
      5 C          64.0349   85.4198   15.8794 C.ar    1  UNL1        0.0197
      6 C          64.2237   84.0099   15.4035 C.ar    1  UNL1        0.0082
      7 C          64.1110   83.6901   13.9423 C.ar    1  UNL1        0.0347
      8 BR         64.2998   82.2801   13.4664 Br      1  UNL1       -0.0490
      9 C          63.8095   84.7802   12.9571 C.ar    1  UNL1        0.0082
     10 C          63.6207   86.1901   13.4330 C.ar    1  UNL1        0.0181
     11 C          63.3192   87.2803   12.4477 C.ar    1  UNL1        0.0023
     12 C          63.1304   88.6901   12.9237 C.ar    1  UNL1        0.0373
     13 C          63.8006   90.9111   16.0656 C.3     1  UNL1        0.2542
     14 O          63.0543   90.4199   14.8607 O.3     1  UNL1       -0.4563
     15 C          63.8489   90.8448   11.6622 C.ar    1  UNL1       -0.0160
     16 C          63.8162   91.5964   10.3646 C.ar    1  UNL1       -0.0039
     17 C          64.8363   92.6609   10.0884 C.ar    1  UNL1       -0.0006
     18 C          65.8891   92.9738   11.1100 C.ar    1  UNL1       -0.0043
     19 C          65.9219   92.2222   12.4077 C.ar    1  UNL1       -0.0222
     20 C          66.9748   92.5351   13.4292 C.3     1  UNL1        0.0310
     21 C          64.9018   91.1577   12.6839 C.ar    1  UNL1       -0.0081
     22 C          61.5073   89.8059   11.2293 C.3     1  UNL1        0.1169
     23 O          61.2407   91.1771   11.7758 O.3     1  UNL1       -0.3819
     24 H          60.4163   91.5212   11.3978 H       1  UNL1        0.2107
     25 C          61.7739   88.4347   10.6828 C.ar    1  UNL1        0.0160
     26 C          62.8519   88.2317    9.6596 C.ar    1  UNL1        0.0007
     27 C          63.1185   86.8605    9.1131 C.ar    1  UNL1        0.0204
     28 C          62.3072   85.6923    9.5898 C.ar    1  UNL1        0.0984
     29 N          61.2294   85.8953   10.6130 N.ar    1  UNL1       -0.2484
     30 C          60.9627   87.2666   11.1595 C.ar    1  UNL1        0.0576
     31 C          59.8848   87.4696   12.1827 C.3     1  UNL1        0.0518
     32 C          60.1858   89.8316   10.5203 C.3     1  UNL1        0.0491
     33 C          60.1230   90.1828    9.0633 C.3     1  UNL1        0.0750
     34 N          59.5799   89.1929    8.0759 N.3     1  UNL1       -0.2702
     35 C          59.1919   87.8168    8.5296 C.3     1  UNL1        0.0897
     36 C          59.4248   89.5790    6.6348 C.3     1  UNL1        0.0897
@<TRIPOS>BOND
     1    13    14    1
     2    14     2    1
     3     2     3   ar
     4     3     4   ar
     5     4     5   ar
     6     5     6   ar
     7     6     7   ar
     8     7     8    1
     9     7     9   ar
    10     9    10   ar
    11    10    11   ar
    12    11    12   ar
    13    12     1    1
    14     1    15    1
    15    15    16   ar
    16    16    17   ar
    17    17    18   ar
    18    18    19   ar
    19    19    20    1
    20    19    21   ar
    21     1    22    1
    22    22    23    1
    23    22    32    1
    24    32    33    1
    25    33    34    1
    26    34    35    1
    27    34    36    1
    28    22    25    1
    29    25    26   ar
    30    26    27   ar
    31    27    28   ar
    32    28    29   ar
    33    29    30   ar
    34    30    31    1
    35    12     2   ar
    36    21    15   ar
    37    30    25   ar
    38    10     4   ar
    39    23    24    1
@<TRIPOS>MOLECULE
*****
 36 39 0 0 0
SMALL
GASTEIGER

@<TRIPOS>ATOM
      1 C          62.9700   88.2257   11.7722 C.3     1  UNL1        0.0776
      2 C          63.3740   90.2506   13.3491 C.ar    1  UNL1        0.2211
      3 N          63.9684   91.6052   13.5976 N.ar    1  UNL1       -0.2119
      4 C          64.7534   92.2894   12.5179 C.ar    1  UNL1        0.0844
      5 C          65.3478   93.6439   12.7665 C.ar    1  UNL1        0.0197
      6 C          66.1327   94.3281   11.6868 C.ar    1  UNL1        0.0082
      7 C          66.3232   93.6577   10.3585 C.ar    1  UNL1        0.0347
      8 BR         67.1081   94.3420    9.2788 Br      1  UNL1       -0.0490
      9 C          65.7287   92.3032   10.1099 C.ar    1  UNL1        0.0082
     10 C          64.9438   91.6190   11.1896 C.ar    1  UNL1        0.0181
     11 C          64.3493   90.2644   10.9411 C.ar    1  UNL1        0.0023
     12 C          63.5645   89.5803   12.0208 C.ar    1  UNL1        0.0373
     13 C          62.9611   89.7666   15.8681 C.3     1  UNL1        0.2542
     14 O          62.5891   89.5664   14.4288 O.3     1  UNL1       -0.4563
     15 C          63.2095   87.1112   12.7472 C.ar    1  UNL1       -0.0160
     16 C          63.9818   87.3696   14.0068 C.ar    1  UNL1       -0.0039
     17 C          64.2213   86.2551   14.9817 C.ar    1  UNL1       -0.0006
     18 C          63.6885   84.8822   14.6971 C.ar    1  UNL1       -0.0043
     19 C          62.9161   84.6236   13.4374 C.ar    1  UNL1       -0.0222
     20 C          62.3833   83.2507   13.1527 C.3     1  UNL1        0.0310
     21 C          62.6766   85.7381   12.4624 C.ar    1  UNL1       -0.0081
     22 C          62.1360   87.9856   10.5488 C.3     1  UNL1        0.1169
     23 O          63.2381   87.1555    9.9604 O.3     1  UNL1       -0.3819
     24 H          62.9377   86.7644    9.1251 H       1  UNL1        0.2107
     25 C          61.0339   88.8157   11.1372 C.ar    1  UNL1        0.0160
     26 C          60.1538   88.2431   12.2084 C.ar    1  UNL1        0.0007
     27 C          59.0516   89.0732   12.7968 C.ar    1  UNL1        0.0204
     28 C          58.8296   90.4759   12.3140 C.ar    1  UNL1        0.0984
     29 N          59.7097   91.0485   11.2428 N.ar    1  UNL1       -0.2484
     30 C          60.8119   90.2184   10.6543 C.ar    1  UNL1        0.0576
     31 C          61.6919   90.7910    9.5831 C.3     1  UNL1        0.0518
     32 C          61.3021   87.7456    9.3253 C.3     1  UNL1        0.0491
     33 C          61.1500   86.3557    8.7822 C.3     1  UNL1        0.0750
     34 N          60.2251   86.0978    7.6297 N.3     1  UNL1       -0.2702
     35 C          60.5192   84.9865    6.6661 C.3     1  UNL1        0.0897
     36 C          59.0062   86.9513    7.4408 C.3     1  UNL1        0.0897
@<TRIPOS>BOND
     1    13    14    1
     2    14     2    1
     3     2     3   ar
     4     3     4   ar
     5     4     5   ar
     6     5     6   ar
     7     6     7   ar
     8     7     8    1
     9     7     9   ar
    10     9    10   ar
    11    10    11   ar
    12    11    12   ar
    13    12     1    1
    14     1    15    1
    15    15    16   ar
    16    16    17   ar
    17    17    18   ar
    18    18    19   ar
    19    19    20    1
    20    19    21   ar
    21     1    22    1
    22    22    23    1
    23    22    32    1
    24    32    33    1
    25    33    34    1
    26    34    35    1
    27    34    36    1
    28    22    25    1
    29    25    26   ar
    30    26    27   ar
    31    27    28   ar
    32    28    29   ar
    33    29    30   ar
    34    30    31    1
    35    12     2   ar
    36    21    15   ar
    37    30    25   ar
    38    10     4   ar
    39    23    24    1
@<TRIPOS>MOLECULE
*****
 36 39 0 0 0
SMALL
GASTEIGER

@<TRIPOS>ATOM
      1 C          62.0269   89.1579   12.0181 C.3     1  UNL1        0.0776
      2 C          63.4932   90.2374   13.8715 C.ar    1  UNL1        0.2211
      3 N          64.5410   91.2269   14.2872 N.ar    1  UNL1       -0.2119
      4 C          65.1704   92.1267   13.2653 C.ar    1  UNL1        0.0844
      5 C          66.2182   93.1162   13.6810 C.ar    1  UNL1        0.0197
      6 C          66.8476   94.0159   12.6591 C.ar    1  UNL1        0.0082
      7 C          66.4292   93.9261   11.2214 C.ar    1  UNL1        0.0347
      8 BR         67.0586   94.8259   10.1995 Br      1  UNL1       -0.0490
      9 C          65.3814   92.9366   10.8057 C.ar    1  UNL1        0.0082
     10 C          64.7520   92.0369   11.8276 C.ar    1  UNL1        0.0181
     11 C          63.7041   91.0473   11.4119 C.ar    1  UNL1        0.0023
     12 C          63.0748   90.1475   12.4338 C.ar    1  UNL1        0.0373
     13 C          63.2055   89.4972   16.3452 C.3     1  UNL1        0.2542
     14 O          62.8638   89.3376   14.8934 O.3     1  UNL1       -0.4563
     15 C          60.5765   89.5380   12.0630 C.ar    1  UNL1       -0.0160
     16 C          60.1145   90.8108   11.4178 C.ar    1  UNL1       -0.0039
     17 C          58.6641   91.1909   11.4627 C.ar    1  UNL1       -0.0006
     18 C          57.6758   90.2981   12.1527 C.ar    1  UNL1       -0.0043
     19 C          58.1379   89.0252   12.7980 C.ar    1  UNL1       -0.0222
     20 C          57.1496   88.1325   13.4881 C.3     1  UNL1        0.0310
     21 C          59.5882   88.6452   12.7531 C.ar    1  UNL1       -0.0081
     22 C          62.4294   87.7883   11.5576 C.3     1  UNL1        0.1169
     23 O          63.3989   87.6898   12.6979 O.3     1  UNL1       -0.3819
     24 H          63.7943   86.8041   12.7105 H       1  UNL1        0.2107
     25 C          61.4600   87.8869   10.4172 C.ar    1  UNL1        0.0160
     26 C          60.3063   86.9322   10.3290 C.ar    1  UNL1        0.0007
     27 C          59.3369   87.0307    9.1886 C.ar    1  UNL1        0.0204
     28 C          59.5210   88.0839    8.1365 C.ar    1  UNL1        0.0984
     29 N          60.6745   89.0386    8.2248 N.ar    1  UNL1       -0.2484
     30 C          61.6441   88.9401    9.3652 C.ar    1  UNL1        0.0576
     31 C          62.7976   89.8948    9.4534 C.3     1  UNL1        0.0518
     32 C          62.8319   86.4187   11.0970 C.3     1  UNL1        0.0491
     33 C          62.5668   85.2266   11.9679 C.3     1  UNL1        0.0750
     34 N          63.7053   84.3627   12.4237 N.3     1  UNL1       -0.2702
     35 C          64.2740   83.3240   11.5030 C.3     1  UNL1        0.0897
     36 C          64.2751   84.5376   13.8002 C.3     1  UNL1        0.0897
@<TRIPOS>BOND
     1    13    14    1
     2    14     2    1
     3     2     3   ar
     4     3     4   ar
     5     4     5   ar
     6     5     6   ar
     7     6     7   ar
     8     7     8    1
     9     7     9   ar
    10     9    10   ar
    11    10    11   ar
    12    11    12   ar
    13    12     1    1
    14     1    15    1
    15    15    16   ar
    16    16    17   ar
    17    17    18   ar
    18    18    19   ar
    19    19    20    1
    20    19    21   ar
    21     1    22    1
    22    22    23    1
    23    22    32    1
    24    32    33    1
    25    33    34    1
    26    34    35    1
    27    34    36    1
    28    22    25    1
    29    25    26   ar
    30    26    27   ar
    31    27    28   ar
    32    28    29   ar
    33    29    30   ar
    34    30    31    1
    35    12     2   ar
    36    21    15   ar
    37    30    25   ar
    38    10     4   ar
    39    23    24    1
@<TRIPOS>MOLECULE
*****
 36 39 0 0 0
SMALL
GASTEIGER

@<TRIPOS>ATOM
      1 C          63.1160   88.5818   12.2359 C.3     1  UNL1        0.0776
      2 C          60.8590   88.8285   10.9730 C.ar    1  UNL1        0.2211
      3 N          59.9414   88.4169    9.8601 N.ar    1  UNL1       -0.2119
      4 C          60.3633   87.3469    8.8971 C.ar    1  UNL1        0.0844
      5 C          59.4457   86.9353    7.7842 C.ar    1  UNL1        0.0197
      6 C          59.8675   85.8653    6.8213 C.ar    1  UNL1        0.0082
      7 C          61.2069   85.2070    6.9713 C.ar    1  UNL1        0.0347
      8 BR         61.6288   84.1370    6.0083 Br      1  UNL1       -0.0490
      9 C          62.1245   85.6186    8.0842 C.ar    1  UNL1        0.0082
     10 C          61.7027   86.6885    9.0471 C.ar    1  UNL1        0.0181
     11 C          62.6203   87.1002   10.1601 C.ar    1  UNL1        0.0023
     12 C          62.1984   88.1701   11.1230 C.ar    1  UNL1        0.0373
     13 C          59.3407   90.8522   11.5642 C.3     1  UNL1        0.2542
     14 O          60.4372   89.8985   11.9359 O.3     1  UNL1       -0.4563
     15 C          63.6188   87.5585   13.2107 C.ar    1  UNL1       -0.0160
     16 C          64.6338   87.9437   14.2457 C.ar    1  UNL1       -0.0039
     17 C          65.1366   86.9205   15.2204 C.ar    1  UNL1       -0.0006
     18 C          64.6243   85.5120   15.1602 C.ar    1  UNL1       -0.0043
     19 C          63.6092   85.1267   14.1252 C.ar    1  UNL1       -0.0222
     20 C          63.0969   83.7182   14.0650 C.3     1  UNL1        0.0310
     21 C          63.1064   86.1499   13.1505 C.ar    1  UNL1       -0.0081
     22 C          63.5308   90.0166   12.3741 C.3     1  UNL1        0.1169
     23 O          63.7879   90.0844   10.8979 O.3     1  UNL1       -0.3819
     24 H          64.0184   90.9938   10.6513 H       1  UNL1        0.2107
     25 C          63.2738   89.9488   13.8503 C.ar    1  UNL1        0.0160
     26 C          61.9850   89.3763   14.3617 C.ar    1  UNL1        0.0007
     27 C          61.7280   89.3085   15.8379 C.ar    1  UNL1        0.0204
     28 C          62.7596   89.8131   16.8028 C.ar    1  UNL1        0.0984
     29 N          64.0484   90.3855   16.2915 N.ar    1  UNL1       -0.2484
     30 C          64.3055   90.4533   14.8152 C.ar    1  UNL1        0.0576
     31 C          65.5942   91.0258   14.3039 C.3     1  UNL1        0.0518
     32 C          63.9456   91.4514   12.5122 C.3     1  UNL1        0.0491
     33 C          64.4744   92.1971   11.3230 C.3     1  UNL1        0.0750
     34 N          65.8365   92.8233   11.3753 N.3     1  UNL1       -0.2702
     35 C          66.1322   93.8922   12.3853 C.3     1  UNL1        0.0897
     36 C          66.9028   92.3806   10.4178 C.3     1  UNL1        0.0897
@<TRIPOS>BOND
     1    13    14    1
     2    14     2    1
     3     2     3   ar
     4     3     4   ar
     5     4     5   ar
     6     5     6   ar
     7     6     7   ar
     8     7     8    1
     9     7     9   ar
    10     9    10   ar
    11    10    11   ar
    12    11    12   ar
    13    12     1    1
    14     1    15    1
    15    15    16   ar
    16    16    17   ar
    17    17    18   ar
    18    18    19   ar
    19    19    20    1
    20    19    21   ar
    21     1    22    1
    22    22    23    1
    23    22    32    1
    24    32    33    1
    25    33    34    1
    26    34    35    1
    27    34    36    1
    28    22    25    1
    29    25    26   ar
    30    26    27   ar
    31    27    28   ar
    32    28    29   ar
    33    29    30   ar
    34    30    31    1
    35    12     2   ar
    36    21    15   ar
    37    30    25   ar
    38    10     4   ar
    39    23    24    1
@<TRIPOS>MOLECULE
*****
 36 39 0 0 0
SMALL
GASTEIGER

@<TRIPOS>ATOM
      1 C          62.5918   87.8703   11.4192 C.3     1  UNL1        0.0776
      2 C          63.7341   86.8022   13.4939 C.ar    1  UNL1        0.2211
      3 N          64.1024   85.5869   14.2922 N.ar    1  UNL1       -0.2119
      4 C          63.6966   84.2242   13.8142 C.ar    1  UNL1        0.0844
      5 C          64.0649   83.0089   14.6125 C.ar    1  UNL1        0.0197
      6 C          63.6592   81.6463   14.1344 C.ar    1  UNL1        0.0082
      7 C          62.8851   81.4990   12.8580 C.ar    1  UNL1        0.0347
      8 BR         62.4793   80.1363   12.3800 Br      1  UNL1       -0.0490
      9 C          62.5168   82.7143   12.0597 C.ar    1  UNL1        0.0082
     10 C          62.9226   84.0769   12.5378 C.ar    1  UNL1        0.0181
     11 C          62.5543   85.2923   11.7395 C.ar    1  UNL1        0.0023
     12 C          62.9601   86.6549   12.2175 C.ar    1  UNL1        0.0373
     13 C          64.2379   88.4455   15.4423 C.3     1  UNL1        0.2542
     14 O          64.1399   88.1649   13.9720 O.3     1  UNL1       -0.4563
     15 C          63.0507   89.2273   11.8643 C.ar    1  UNL1       -0.0160
     16 C          62.6531   89.7484   13.2134 C.ar    1  UNL1       -0.0039
     17 C          63.1120   91.1053   13.6585 C.ar    1  UNL1       -0.0006
     18 C          63.9685   91.9413   12.7543 C.ar    1  UNL1       -0.0043
     19 C          64.3662   91.4202   11.4050 C.ar    1  UNL1       -0.0222
     20 C          65.2227   92.2561   10.5009 C.3     1  UNL1        0.0310
     21 C          63.9073   90.0632   10.9600 C.ar    1  UNL1       -0.0081
     22 C          61.7647   87.7287   10.1760 C.3     1  UNL1        0.1169
     23 O          62.8237   86.8557    9.5708 O.3     1  UNL1       -0.3819
     24 H          62.5136   86.5160    8.7168 H       1  UNL1        0.2107
     25 C          60.7056   88.6017   10.7811 C.ar    1  UNL1        0.0160
     26 C          59.8516   88.0799   11.8985 C.ar    1  UNL1        0.0007
     27 C          58.7926   88.9529   12.5036 C.ar    1  UNL1        0.0204
     28 C          58.5875   90.3478   11.9914 C.ar    1  UNL1        0.0984
     29 N          59.4414   90.8696   10.8742 N.ar    1  UNL1       -0.2484
     30 C          60.5005   89.9966   10.2690 C.ar    1  UNL1        0.0576
     31 C          61.3545   90.5185    9.1517 C.3     1  UNL1        0.0518
     32 C          60.9375   87.5871    8.9327 C.3     1  UNL1        0.0491
     33 C          60.5114   86.2267    8.4663 C.3     1  UNL1        0.0750
     34 N          61.4092   85.4257    7.5705 N.3     1  UNL1       -0.2702
     35 C          62.8278   85.1565    7.9770 C.3     1  UNL1        0.0897
     36 C          60.8885   84.8939    6.2682 C.3     1  UNL1        0.0897
@<TRIPOS>BOND
     1    13    14    1
     2    14     2    1
     3     2     3   ar
     4     3     4   ar
     5     4     5   ar
     6     5     6   ar
     7     6     7   ar
     8     7     8    1
     9     7     9   ar
    10     9    10   ar
    11    10    11   ar
    12    11    12   ar
    13    12     1    1
    14     1    15    1
    15    15    16   ar
    16    16    17   ar
    17    17    18   ar
    18    18    19   ar
    19    19    20    1
    20    19    21   ar
    21     1    22    1
    22    22    23    1
    23    22    32    1
    24    32    33    1
    25    33    34    1
    26    34    35    1
    27    34    36    1
    28    22    25    1
    29    25    26   ar
    30    26    27   ar
    31    27    28   ar
    32    28    29   ar
    33    29    30   ar
    34    30    31    1
    35    12     2   ar
    36    21    15   ar
    37    30    25   ar
    38    10     4   ar
    39    23    24    1
