@<TRIPOS>MOLECULE
*****
 25 27 0 0 0
SMALL
GASTEIGER

@<TRIPOS>ATOM
      1 C          63.6004   89.6408   12.6151 C.ar    1  UNL1        0.1724
      2 C          64.1402   88.8001   13.7339 C.ar    1  UNL1        0.0400
      3 C          63.8267   87.3342   13.7893 C.ar    1  UNL1        0.0032
      4 C          64.3665   86.4936   14.9082 C.ar    1  UNL1       -0.0001
      5 C          64.0530   85.0278   14.9635 C.ar    1  UNL1       -0.0017
      6 C          63.1997   84.4027   13.9000 C.ar    1  UNL1        0.0061
      7 C          62.6599   85.2433   12.7812 C.ar    1  UNL1       -0.0016
      8 C          62.9734   86.7091   12.7258 C.ar    1  UNL1        0.0030
      9 C          62.4336   87.5498   11.6069 C.ar    1  UNL1        0.0400
     10 C          62.7471   89.0156   11.5516 C.ar    1  UNL1        0.1724
     11 C          62.8862   82.9368   13.9554 C.3     1  UNL1        0.1325
     12 O          62.3259   83.1087   15.3361 O.3     1  UNL1       -0.3780
     13 H          62.3962   84.0395   15.6000 H       1  UNL1        0.2111
     14 C          63.4466   82.7648   12.5747 C.ar    1  UNL1        0.0556
     15 C          64.8183   83.1703   12.1230 C.ar    1  UNL1        0.1042
     16 N          64.9531   82.8133   10.6723 N.ar    1  UNL1       -0.2350
     17 C          63.6646   82.1871   10.2274 C.ar    1  UNL1        0.1343
     18 S          62.7335   82.1572   11.4031 S.2     1  UNL1       -0.0662
     19 C          62.5728   81.4710   14.0107 C.3     1  UNL1        0.0331
     20 C          63.6828   80.4638   13.9506 C.3     1  UNL1        0.0031
     21 C          61.1493   81.0122   14.1262 C.3     1  UNL1        0.0031
     22 C          65.1107   91.6456   13.2856 C.3     1  UNL1        0.2526
     23 O          63.9138   91.1067   12.5597 O.3     1  UNL1       -0.4684
     24 O          62.2073   89.8563   10.4326 O.3     1  UNL1       -0.4684
     25 C          60.7575   90.2409   10.4156 C.3     1  UNL1        0.2526
@<TRIPOS>BOND
     1    22    23    1
     2    23     1    1
     3     1     2   ar
     4     2     3   ar
     5     3     4   ar
     6     4     5   ar
     7     5     6   ar
     8     6    11    1
     9    11    12    1
    10    11    14    1
    11    14    15   ar
    12    15    16   ar
    13    16    17   ar
    14    17    18   ar
    15    11    19    1
    16    19    20    1
    17    19    21    1
    18     6     7   ar
    19     7     8   ar
    20     8     9   ar
    21     9    10   ar
    22    10    24    1
    23    24    25    1
    24    10     1   ar
    25     8     3   ar
    26    18    14   ar
    27    12    13    1
@<TRIPOS>MOLECULE
*****
 25 27 0 0 0
SMALL
GASTEIGER

@<TRIPOS>ATOM
      1 C          63.8020   90.1325   12.7778 C.ar    1  UNL1        0.1724
      2 C          63.0926   89.1365   11.9091 C.ar    1  UNL1        0.0400
      3 C          63.0151   87.6978   12.3269 C.ar    1  UNL1        0.0032
      4 C          62.3056   86.7018   11.4583 C.ar    1  UNL1       -0.0001
      5 C          62.2282   85.2633   11.8761 C.ar    1  UNL1       -0.0017
      6 C          62.8601   84.8208   13.1625 C.ar    1  UNL1        0.0061
      7 C          63.5695   85.8168   14.0311 C.ar    1  UNL1       -0.0016
      8 C          63.6470   87.2554   13.6133 C.ar    1  UNL1        0.0030
      9 C          64.3564   88.2515   14.4820 C.ar    1  UNL1        0.0400
     10 C          64.4339   89.6900   14.0642 C.ar    1  UNL1        0.1724
     11 C          62.7826   83.3822   13.5803 C.3     1  UNL1        0.1325
     12 O          62.1864   83.7955   14.8932 O.3     1  UNL1       -0.3780
     13 H          62.1052   84.7617   14.9215 H       1  UNL1        0.2111
     14 C          63.3787   82.9688   12.2674 C.ar    1  UNL1        0.0556
     15 C          64.6842   83.4454   11.7028 C.ar    1  UNL1        0.1042
     16 N          64.8864   82.7774   10.3749 N.ar    1  UNL1       -0.2350
     17 C          63.7058   81.8880   10.1189 C.ar    1  UNL1        0.1343
     18 S          62.7741   82.0063   11.2885 S.2     1  UNL1       -0.0662
     19 C          62.7051   81.9436   13.9980 C.3     1  UNL1        0.0331
     20 C          61.3719   81.3123   14.2698 C.3     1  UNL1        0.0031
     21 C          63.9609   81.1363   14.1438 C.3     1  UNL1        0.0031
     22 C          64.6487   91.9547   11.1308 C.3     1  UNL1        0.2526
     23 O          63.8795   91.5711   12.3600 O.3     1  UNL1       -0.4684
     24 O          65.1433   90.6862   14.9329 O.3     1  UNL1       -0.4684
     25 C          66.4517   91.2705   14.4893 C.3     1  UNL1        0.2526
@<TRIPOS>BOND
     1    22    23    1
     2    23     1    1
     3     1     2   ar
     4     2     3   ar
     5     3     4   ar
     6     4     5   ar
     7     5     6   ar
     8     6    11    1
     9    11    12    1
    10    11    14    1
    11    14    15   ar
    12    15    16   ar
    13    16    17   ar
    14    17    18   ar
    15    11    19    1
    16    19    20    1
    17    19    21    1
    18     6     7   ar
    19     7     8   ar
    20     8     9   ar
    21     9    10   ar
    22    10    24    1
    23    24    25    1
    24    10     1   ar
    25     8     3   ar
    26    18    14   ar
    27    12    13    1
@<TRIPOS>MOLECULE
*****
 25 27 0 0 0
SMALL
GASTEIGER

@<TRIPOS>ATOM
      1 C          61.1948   88.0519    9.9264 C.ar    1  UNL1        0.1724
      2 C          61.6607   89.4315    9.5664 C.ar    1  UNL1        0.0400
      3 C          62.6588   90.1369   10.4361 C.ar    1  UNL1        0.0032
      4 C          63.1246   91.5165   10.0761 C.ar    1  UNL1       -0.0001
      5 C          64.1227   92.2218   10.9457 C.ar    1  UNL1       -0.0017
      6 C          64.6550   91.5474   12.1754 C.ar    1  UNL1        0.0061
      7 C          64.1892   90.1678   12.5354 C.ar    1  UNL1       -0.0016
      8 C          63.1911   89.4626   11.6657 C.ar    1  UNL1        0.0030
      9 C          62.7252   88.0829   12.0257 C.ar    1  UNL1        0.0400
     10 C          61.7271   87.3776   11.1561 C.ar    1  UNL1        0.1724
     11 C          65.6531   92.2528   13.0450 C.3     1  UNL1        0.1325
     12 O          64.8830   91.8397   14.2641 O.3     1  UNL1       -0.3780
     13 H          64.1085   91.3206   13.9967 H       1  UNL1        0.2111
     14 C          66.4233   92.6660   11.8259 C.ar    1  UNL1        0.0556
     15 C          67.6092   91.9519   11.2483 C.ar    1  UNL1        0.1042
     16 N          68.0616   92.7104   10.0357 N.ar    1  UNL1       -0.2350
     17 C          67.1551   93.8932    9.8640 C.ar    1  UNL1        0.1343
     18 S          66.1426   93.8658   10.9704 S.2     1  UNL1       -0.0662
     19 C          66.6513   92.9582   13.9146 C.3     1  UNL1        0.0331
     20 C          67.6126   92.1644   14.7487 C.3     1  UNL1        0.0031
     21 C          66.6881   94.4573   13.9501 C.3     1  UNL1        0.0031
     22 C          60.6493   86.2661    8.1199 C.3     1  UNL1        0.2526
     23 O          60.1967   87.3465    9.0568 O.3     1  UNL1       -0.4684
     24 O          61.2612   85.9979   11.5161 O.3     1  UNL1       -0.4684
     25 C          62.2349   84.8570   11.5288 C.3     1  UNL1        0.2526
@<TRIPOS>BOND
     1    22    23    1
     2    23     1    1
     3     1     2   ar
     4     2     3   ar
     5     3     4   ar
     6     4     5   ar
     7     5     6   ar
     8     6    11    1
     9    11    12    1
    10    11    14    1
    11    14    15   ar
    12    15    16   ar
    13    16    17   ar
    14    17    18   ar
    15    11    19    1
    16    19    20    1
    17    19    21    1
    18     6     7   ar
    19     7     8   ar
    20     8     9   ar
    21     9    10   ar
    22    10    24    1
    23    24    25    1
    24    10     1   ar
    25     8     3   ar
    26    18    14   ar
    27    12    13    1
@<TRIPOS>MOLECULE
*****
 25 27 0 0 0
SMALL
GASTEIGER

@<TRIPOS>ATOM
      1 C          61.0241   88.2280    9.3109 C.ar    1  UNL1        0.1724
      2 C          61.9032   87.1191    8.8134 C.ar    1  UNL1        0.0400
      3 C          62.2215   85.9564    9.7061 C.ar    1  UNL1        0.0032
      4 C          63.1006   84.8475    9.2086 C.ar    1  UNL1       -0.0001
      5 C          63.4188   83.6849   10.1013 C.ar    1  UNL1       -0.0017
      6 C          62.8580   83.6311   11.4915 C.ar    1  UNL1        0.0061
      7 C          61.9789   84.7400   11.9890 C.ar    1  UNL1       -0.0016
      8 C          61.6607   85.9026   11.0963 C.ar    1  UNL1        0.0030
      9 C          60.7816   87.0116   11.5938 C.ar    1  UNL1        0.0400
     10 C          60.4633   88.1743   10.7011 C.ar    1  UNL1        0.1724
     11 C          63.1763   82.4684   12.3842 C.3     1  UNL1        0.1325
     12 O          63.0097   81.5321   11.2242 O.3     1  UNL1       -0.3780
     13 H          62.7797   82.0391   10.4299 H       1  UNL1        0.2111
     14 C          63.3429   83.4046   13.5441 C.ar    1  UNL1        0.0556
     15 C          62.4057   83.5431   14.7071 C.ar    1  UNL1        0.1042
     16 N          62.9596   84.5910   15.6266 N.ar    1  UNL1       -0.2350
     17 C          64.2392   85.1000   15.0319 C.ar    1  UNL1        0.1343
     18 S          64.4761   84.3669   13.7449 S.2     1  UNL1       -0.0662
     19 C          63.4946   81.3057   13.2768 C.3     1  UNL1        0.0331
     20 C          64.8810   81.1379   13.8242 C.3     1  UNL1        0.0031
     21 C          62.4264   80.3108   13.6222 C.3     1  UNL1        0.0031
     22 C          59.6311   89.2665    7.3793 C.3     1  UNL1        0.2526
     23 O          60.7058   89.3907    8.4182 O.3     1  UNL1       -0.4684
     24 O          59.5842   89.2832   11.1986 O.3     1  UNL1       -0.4684
     25 C          58.9024   89.1603   12.5290 C.3     1  UNL1        0.2526
@<TRIPOS>BOND
     1    22    23    1
     2    23     1    1
     3     1     2   ar
     4     2     3   ar
     5     3     4   ar
     6     4     5   ar
     7     5     6   ar
     8     6    11    1
     9    11    12    1
    10    11    14    1
    11    14    15   ar
    12    15    16   ar
    13    16    17   ar
    14    17    18   ar
    15    11    19    1
    16    19    20    1
    17    19    21    1
    18     6     7   ar
    19     7     8   ar
    20     8     9   ar
    21     9    10   ar
    22    10    24    1
    23    24    25    1
    24    10     1   ar
    25     8     3   ar
    26    18    14   ar
    27    12    13    1
@<TRIPOS>MOLECULE
*****
 25 27 0 0 0
SMALL
GASTEIGER

@<TRIPOS>ATOM
      1 C          63.2285   81.8262   11.2294 C.ar    1  UNL1        0.1724
      2 C          63.3398   82.7185   10.0288 C.ar    1  UNL1        0.0400
      3 C          62.9722   84.1689   10.1355 C.ar    1  UNL1        0.0032
      4 C          63.0836   85.0611    8.9350 C.ar    1  UNL1       -0.0001
      5 C          62.7160   86.5114    9.0418 C.ar    1  UNL1       -0.0017
      6 C          62.2371   87.0695   10.3491 C.ar    1  UNL1        0.0061
      7 C          62.1257   86.1772   11.5497 C.ar    1  UNL1       -0.0016
      8 C          62.4933   84.7269   11.4429 C.ar    1  UNL1        0.0030
      9 C          62.3820   83.8346   12.6435 C.ar    1  UNL1        0.0400
     10 C          62.7496   82.3843   12.5367 C.ar    1  UNL1        0.1724
     11 C          61.8695   88.5199   10.4559 C.3     1  UNL1        0.1325
     12 O          62.9424   88.7160   11.4856 O.3     1  UNL1       -0.3780
     13 H          63.3978   87.8741   11.6425 H       1  UNL1        0.2111
     14 C          60.7965   88.3237    9.4262 C.ar    1  UNL1        0.0556
     15 C          60.4733   89.2604    8.3001 C.ar    1  UNL1        0.1042
     16 N          59.3354   88.6719    7.5197 N.ar    1  UNL1       -0.2350
     17 C          58.9553   87.3715    8.1636 C.ar    1  UNL1        0.1343
     18 S          59.8584   87.1562    9.3418 S.2     1  UNL1       -0.0662
     19 C          61.5018   89.9702   10.5626 C.3     1  UNL1        0.0331
     20 C          60.1487   90.3651   11.0755 C.3     1  UNL1        0.0031
     21 C          62.4874   91.0256   10.1565 C.3     1  UNL1        0.0031
     22 C          62.9743   79.5209   10.0585 C.3     1  UNL1        0.2526
     23 O          63.5961   80.3758   11.1226 O.3     1  UNL1       -0.4684
     24 O          62.6383   81.4919   13.7374 O.3     1  UNL1       -0.4684
     25 C          61.2921   81.0120   14.1929 C.3     1  UNL1        0.2526
@<TRIPOS>BOND
     1    22    23    1
     2    23     1    1
     3     1     2   ar
     4     2     3   ar
     5     3     4   ar
     6     4     5   ar
     7     5     6   ar
     8     6    11    1
     9    11    12    1
    10    11    14    1
    11    14    15   ar
    12    15    16   ar
    13    16    17   ar
    14    17    18   ar
    15    11    19    1
    16    19    20    1
    17    19    21    1
    18     6     7   ar
    19     7     8   ar
    20     8     9   ar
    21     9    10   ar
    22    10    24    1
    23    24    25    1
    24    10     1   ar
    25     8     3   ar
    26    18    14   ar
    27    12    13    1
@<TRIPOS>MOLECULE
*****
 25 27 0 0 0
SMALL
GASTEIGER

@<TRIPOS>ATOM
      1 C          61.7905   87.9497   11.2703 C.ar    1  UNL1        0.1724
      2 C          62.6297   88.5389   12.3650 C.ar    1  UNL1        0.0400
      3 C          63.3906   89.8093   12.1257 C.ar    1  UNL1        0.0032
      4 C          64.2298   90.3984   13.2204 C.ar    1  UNL1       -0.0001
      5 C          64.9907   91.6687   12.9811 C.ar    1  UNL1       -0.0017
      6 C          64.9124   92.3499   11.6470 C.ar    1  UNL1        0.0061
      7 C          64.0731   91.7607   10.5522 C.ar    1  UNL1       -0.0016
      8 C          63.3123   90.4904   10.7916 C.ar    1  UNL1        0.0030
      9 C          62.4730   89.9012    9.6968 C.ar    1  UNL1        0.0400
     10 C          61.7121   88.6309    9.9361 C.ar    1  UNL1        0.1724
     11 C          65.6733   93.6203   11.4076 C.3     1  UNL1        0.1325
     12 O          64.7126   93.9903   10.3167 O.3     1  UNL1       -0.3780
     13 H          64.0416   93.2955   10.2275 H       1  UNL1        0.2111
     14 C          66.6340   93.2503   12.4985 C.ar    1  UNL1        0.0556
     15 C          67.7837   92.2948   12.3743 C.ar    1  UNL1        0.1042
     16 N          68.4740   92.2248   13.7043 N.ar    1  UNL1       -0.2350
     17 C          67.7509   93.1371   14.6504 C.ar    1  UNL1        0.1343
     18 S          66.6138   93.7708   13.9052 S.2     1  UNL1       -0.0662
     19 C          66.4342   94.8906   11.1683 C.3     1  UNL1        0.0331
     20 C          67.4404   94.9644   10.0583 C.3     1  UNL1        0.0031
     21 C          66.1890   96.0872   12.0391 C.3     1  UNL1        0.0031
     22 C          61.6564   85.3566   11.1821 C.3     1  UNL1        0.2526
     23 O          61.0295   86.6794   11.5096 O.3     1  UNL1       -0.4684
     24 O          60.8728   88.0417    8.8413 O.3     1  UNL1       -0.4684
     25 C          59.8595   88.8913    8.1334 C.3     1  UNL1        0.2526
@<TRIPOS>BOND
     1    22    23    1
     2    23     1    1
     3     1     2   ar
     4     2     3   ar
     5     3     4   ar
     6     4     5   ar
     7     5     6   ar
     8     6    11    1
     9    11    12    1
    10    11    14    1
    11    14    15   ar
    12    15    16   ar
    13    16    17   ar
    14    17    18   ar
    15    11    19    1
    16    19    20    1
    17    19    21    1
    18     6     7   ar
    19     7     8   ar
    20     8     9   ar
    21     9    10   ar
    22    10    24    1
    23    24    25    1
    24    10     1   ar
    25     8     3   ar
    26    18    14   ar
    27    12    13    1
@<TRIPOS>MOLECULE
*****
 25 27 0 0 0
SMALL
GASTEIGER

@<TRIPOS>ATOM
      1 C          61.2738   88.1819   10.9338 C.ar    1  UNL1        0.1724
      2 C          62.2707   87.8640   12.0086 C.ar    1  UNL1        0.0400
      3 C          63.1476   88.9476   12.5626 C.ar    1  UNL1        0.0032
      4 C          64.1444   88.6297   13.6373 C.ar    1  UNL1       -0.0001
      5 C          65.0213   89.7133   14.1912 C.ar    1  UNL1       -0.0017
      6 C          64.9013   91.1148   13.6704 C.ar    1  UNL1        0.0061
      7 C          63.9044   91.4328   12.5956 C.ar    1  UNL1       -0.0016
      8 C          63.0276   90.3491   12.0417 C.ar    1  UNL1        0.0030
      9 C          62.0307   90.6670   10.9669 C.ar    1  UNL1        0.0400
     10 C          61.1538   89.5834   10.4130 C.ar    1  UNL1        0.1724
     11 C          65.7782   92.1985   14.2244 C.3     1  UNL1        0.1325
     12 O          65.0010   92.1718   15.5070 O.3     1  UNL1       -0.3780
     13 H          64.2988   91.5054   15.4457 H       1  UNL1        0.2111
     14 C          66.5555   92.2251   12.9418 C.ar    1  UNL1        0.0556
     15 C          67.9474   91.7025   12.7433 C.ar    1  UNL1        0.1042
     16 N          68.3295   91.9335   11.3112 N.ar    1  UNL1       -0.2350
     17 C          67.1736   92.5988   10.6246 C.ar    1  UNL1        0.1343
     18 S          66.0772   92.7790   11.6323 S.2     1  UNL1       -0.0662
     19 C          66.6551   93.2820   14.7783 C.3     1  UNL1        0.0331
     20 C          66.7774   94.5907   14.0556 C.3     1  UNL1        0.0031
     21 C          67.4098   93.0569   16.0550 C.3     1  UNL1        0.0031
     22 C          61.0055   85.9519    9.6279 C.3     1  UNL1        0.2526
     23 O          60.3969   87.0983   10.3799 O.3     1  UNL1       -0.4684
     24 O          60.1569   89.9013    9.3382 O.3     1  UNL1       -0.4684
     25 C          60.0645   89.0313    8.1198 C.3     1  UNL1        0.2526
@<TRIPOS>BOND
     1    22    23    1
     2    23     1    1
     3     1     2   ar
     4     2     3   ar
     5     3     4   ar
     6     4     5   ar
     7     5     6   ar
     8     6    11    1
     9    11    12    1
    10    11    14    1
    11    14    15   ar
    12    15    16   ar
    13    16    17   ar
    14    17    18   ar
    15    11    19    1
    16    19    20    1
    17    19    21    1
    18     6     7   ar
    19     7     8   ar
    20     8     9   ar
    21     9    10   ar
    22    10    24    1
    23    24    25    1
    24    10     1   ar
    25     8     3   ar
    26    18    14   ar
    27    12    13    1
@<TRIPOS>MOLECULE
*****
 25 27 0 0 0
SMALL
GASTEIGER

@<TRIPOS>ATOM
      1 C          63.8416   82.7057   12.7647 C.ar    1  UNL1        0.1724
      2 C          63.9496   82.9973   11.2973 C.ar    1  UNL1        0.0400
      3 C          63.1686   84.1292   10.6981 C.ar    1  UNL1        0.0032
      4 C          63.2765   84.4208    9.2307 C.ar    1  UNL1       -0.0001
      5 C          62.4956   85.5527    8.6316 C.ar    1  UNL1       -0.0017
      6 C          61.6067   86.3929    9.4999 C.ar    1  UNL1        0.0061
      7 C          61.4988   86.1013   10.9673 C.ar    1  UNL1       -0.0016
      8 C          62.2797   84.9695   11.5664 C.ar    1  UNL1        0.0030
      9 C          62.1718   84.6778   13.0338 C.ar    1  UNL1        0.0400
     10 C          62.9528   83.5460   13.6330 C.ar    1  UNL1        0.1724
     11 C          60.8257   87.5248    8.9007 C.3     1  UNL1        0.1325
     12 O          60.5950   86.7103    7.6625 O.3     1  UNL1       -0.3780
     13 H          61.0214   85.8446    7.7608 H       1  UNL1        0.2111
     14 C          61.0564   88.3394   10.1389 C.ar    1  UNL1        0.0556
     15 C          60.0387   88.6396   11.1991 C.ar    1  UNL1        0.1042
     16 N          60.6987   89.4826   12.2499 N.ar    1  UNL1       -0.2350
     17 C          62.1244   89.7034   11.8389 C.ar    1  UNL1        0.1343
     18 S          62.3454   88.9969   10.5343 S.2     1  UNL1       -0.0662
     19 C          60.0448   88.6567    8.3015 C.3     1  UNL1        0.0331
     20 C          60.3963   90.0742    8.6437 C.3     1  UNL1        0.0031
     21 C          58.9124   88.3711    7.3602 C.3     1  UNL1        0.0031
     22 C          63.9084   80.3586   13.8769 C.3     1  UNL1        0.2526
     23 O          64.6226   81.5738   13.3639 O.3     1  UNL1       -0.4684
     24 O          62.8449   83.2543   15.1004 O.3     1  UNL1       -0.4684
     25 C          62.5113   84.3565   16.0616 C.3     1  UNL1        0.2526
@<TRIPOS>BOND
     1    22    23    1
     2    23     1    1
     3     1     2   ar
     4     2     3   ar
     5     3     4   ar
     6     4     5   ar
     7     5     6   ar
     8     6    11    1
     9    11    12    1
    10    11    14    1
    11    14    15   ar
    12    15    16   ar
    13    16    17   ar
    14    17    18   ar
    15    11    19    1
    16    19    20    1
    17    19    21    1
    18     6     7   ar
    19     7     8   ar
    20     8     9   ar
    21     9    10   ar
    22    10    24    1
    23    24    25    1
    24    10     1   ar
    25     8     3   ar
    26    18    14   ar
    27    12    13    1
@<TRIPOS>MOLECULE
*****
 25 27 0 0 0
SMALL
GASTEIGER

@<TRIPOS>ATOM
      1 C          61.9362   92.6414    1.9083 C.ar    1  UNL1        0.1724
      2 C          62.0752   92.9583    0.4488 C.ar    1  UNL1        0.0400
      3 C          60.8706   93.3612   -0.3493 C.ar    1  UNL1        0.0032
      4 C          61.0096   93.6781   -1.8088 C.ar    1  UNL1       -0.0001
      5 C          59.8050   94.0810   -2.6067 C.ar    1  UNL1       -0.0017
      6 C          58.4615   94.1669   -1.9452 C.ar    1  UNL1        0.0061
      7 C          58.3226   93.8499   -0.4857 C.ar    1  UNL1       -0.0016
      8 C          59.5271   93.4471    0.3123 C.ar    1  UNL1        0.0030
      9 C          59.3882   93.1301    1.7719 C.ar    1  UNL1        0.0400
     10 C          60.5927   92.7273    2.5698 C.ar    1  UNL1        0.1724
     11 C          57.2570   94.5697   -2.7432 C.3     1  UNL1        0.1325
     12 O          57.5273   96.0102   -2.4241 O.3     1  UNL1       -0.3780
     13 H          58.3199   96.0752   -1.8688 H       1  UNL1        0.2111
     14 C          56.9867   93.1292   -3.0623 C.ar    1  UNL1        0.0556
     15 C          57.6724   92.3169   -4.1206 C.ar    1  UNL1        0.1042
     16 N          57.0927   90.9337   -4.0915 N.ar    1  UNL1       -0.2350
     17 C          56.0486   90.8912   -3.0152 C.ar    1  UNL1        0.1343
     18 S          55.9831   92.2481   -2.3792 S.2     1  UNL1       -0.0662
     19 C          56.0525   94.9725   -3.5412 C.3     1  UNL1        0.0331
     20 C          54.7964   95.3980   -2.8403 C.3     1  UNL1        0.0031
     21 C          56.1040   94.9499   -5.0402 C.3     1  UNL1        0.0031
     22 C          63.3080   90.8137    3.1444 C.3     1  UNL1        0.2526
     23 O          63.1408   92.2385    2.7063 O.3     1  UNL1       -0.4684
     24 O          60.4538   92.4103    4.0294 O.3     1  UNL1       -0.4684
     25 C          59.1114   92.0515    4.5945 C.3     1  UNL1        0.2526
@<TRIPOS>BOND
     1    22    23    1
     2    23     1    1
     3     1     2   ar
     4     2     3   ar
     5     3     4   ar
     6     4     5   ar
     7     5     6   ar
     8     6    11    1
     9    11    12    1
    10    11    14    1
    11    14    15   ar
    12    15    16   ar
    13    16    17   ar
    14    17    18   ar
    15    11    19    1
    16    19    20    1
    17    19    21    1
    18     6     7   ar
    19     7     8   ar
    20     8     9   ar
    21     9    10   ar
    22    10    24    1
    23    24    25    1
    24    10     1   ar
    25     8     3   ar
    26    18    14   ar
    27    12    13    1
