@<TRIPOS>MOLECULE
*****
 42 47 0 0 0
SMALL
GASTEIGER

@<TRIPOS>ATOM
      1 N          63.0190   85.0932   15.7767 N.3     1  UNL1       -0.2626
      2 C          64.4308   84.8480   15.3332 C.3     1  UNL1        0.0900
      3 C          64.7720   83.6013   14.5719 C.3     1  UNL1        0.0897
      4 N          63.7014   82.5999   14.2541 N.3     1  UNL1       -0.2682
      5 C          62.2896   82.8451   14.6976 C.3     1  UNL1        0.0897
      6 C          61.9484   84.0918   15.4589 C.3     1  UNL1        0.0900
      7 C          62.6778   86.3398   16.5379 C.3     1  UNL1        0.1588
      8 N          63.6952   87.8291   14.6680 N.am    1  UNL1       -0.2828
      9 C          63.1981   87.6679   16.0740 C.2     1  UNL1        0.2425
     10 O          63.2213   88.8349   17.0160 O.2     1  UNL1       -0.2733
     11 H          63.6799   87.0631   14.0496 H       1  UNL1        0.1549
     12 N          65.9651   93.1179   13.0614 N.ar    1  UNL1       -0.3272
     13 C          66.9765   93.2815   14.1570 C.ar    1  UNL1        0.0599
     14 C          67.9631   94.3706   14.4578 C.ar    1  UNL1        0.0172
     15 C          68.8657   94.2565   15.6503 C.ar    1  UNL1        0.0015
     16 C          68.7818   93.0533   16.5421 C.ar    1  UNL1        0.0001
     17 C          67.7952   91.9641   16.2413 C.ar    1  UNL1        0.0015
     18 C          66.8926   92.0783   15.0487 C.ar    1  UNL1        0.0172
     19 C          65.8293   91.1711   14.5043 C.ar    1  UNL1        0.0184
     20 C          65.3090   89.8429   14.9682 C.ar    1  UNL1        0.0162
     21 C          64.2155   89.1573   14.2039 C.ar    1  UNL1        0.0504
     22 C          63.6422   89.7998   12.9757 C.ar    1  UNL1        0.0162
     23 C          64.1625   91.1280   12.5118 C.ar    1  UNL1        0.0185
     24 C          65.2561   91.8136   13.2760 C.ar    1  UNL1        0.0600
     25 C          66.0407   93.7124   10.5333 C.3     1  UNL1        0.0265
     26 C          65.7079   94.0883   11.9469 C.3     1  UNL1        0.1061
     27 C          64.0427   81.3533   13.4929 C.3     1  UNL1        0.1056
     28 C          63.1226   80.8555   12.4178 C.3     1  UNL1        0.1700
     29 O          62.2608   79.6531   12.6658 O.3     1  UNL1       -0.3793
     30 H          62.4194   79.3211   13.5633 H       1  UNL1        0.2106
     31 C          63.0644   81.5600   11.0950 C.3     1  UNL1        0.2358
     32 O          63.9206   82.7670   10.8498 O.3     1  UNL1       -0.4727
     33 C          63.2921   84.0551   10.4071 C.ar    1  UNL1        0.1402
     34 C          63.3795   84.4774    8.9705 C.ar    1  UNL1        0.0375
     35 C          62.7510   85.7655    8.5278 C.ar    1  UNL1        0.0111
     36 C          62.0351   86.6311    9.5218 C.ar    1  UNL1        0.0484
     37 S          61.3238   87.9442    9.3807 S.2     1  UNL1       -0.0708
     38 C          60.7968   88.3334   10.7300 C.ar    1  UNL1        0.0886
     39 C          60.0206   89.5768   11.0484 C.3     1  UNL1        0.0594
     40 N          61.1824   87.2608   11.7052 N.ar    1  UNL1       -0.2426
     41 C          61.9476   86.2088   10.9585 C.ar    1  UNL1        0.0905
     42 C          62.5761   84.9207   11.4011 C.ar    1  UNL1        0.0565
@<TRIPOS>BOND
     1    25    26    1
     2    26    12    1
     3    12    13   ar
     4    13    14   ar
     5    14    15   ar
     6    15    16   ar
     7    16    17   ar
     8    17    18   ar
     9    18    19   ar
    10    19    20   ar
    11    20    21   ar
    12    21     8    1
    13     8     9   am
    14     9    10    2
    15     9     7    1
    16     7     1    1
    17     1     2    1
    18     2     3    1
    19     3     4    1
    20     4    27    1
    21    27    28    1
    22    28    29    1
    23    28    31    1
    24    31    32    1
    25    32    33    1
    26    33    34   ar
    27    34    35   ar
    28    35    36   ar
    29    36    37   ar
    30    37    38   ar
    31    38    39    1
    32    38    40   ar
    33    40    41   ar
    34    41    42   ar
    35     4     5    1
    36     5     6    1
    37    21    22   ar
    38    22    23   ar
    39    23    24   ar
    40    24    12   ar
    41    18    13   ar
    42    24    19   ar
    43     6     1    1
    44    42    33   ar
    45    41    36   ar
    46     8    11    1
    47    29    30    1
@<TRIPOS>MOLECULE
*****
 42 47 0 0 0
SMALL
GASTEIGER

@<TRIPOS>ATOM
      1 N          63.9488   90.0697   16.2668 N.3     1  UNL1       -0.2626
      2 C          64.0573   91.5275   16.6033 C.3     1  UNL1        0.0900
      3 C          64.7898   92.4573   15.6819 C.3     1  UNL1        0.0897
      4 N          65.4139   91.9294   14.4242 N.3     1  UNL1       -0.2682
      5 C          65.3054   90.4716   14.0878 C.3     1  UNL1        0.0897
      6 C          64.5729   89.5418   15.0091 C.3     1  UNL1        0.0900
      7 C          63.2163   89.1399   17.1881 C.3     1  UNL1        0.1588
      8 N          63.7244   86.9873   15.8251 N.am    1  UNL1       -0.2828
      9 C          62.8071   87.7784   16.7098 C.2     1  UNL1        0.2425
     10 O          61.4807   87.2081   17.1162 O.2     1  UNL1       -0.2733
     11 H          64.5950   87.3616   15.5584 H       1  UNL1        0.1549
     12 N          62.2369   81.6248   13.6489 N.ar    1  UNL1       -0.3272
     13 C          62.8649   81.7401   12.2916 C.ar    1  UNL1        0.0599
     14 C          62.9304   80.7909   11.1320 C.ar    1  UNL1        0.0172
     15 C          63.6440   81.1909    9.8748 C.ar    1  UNL1        0.0015
     16 C          64.2921   82.5401    9.7771 C.ar    1  UNL1        0.0001
     17 C          64.2267   83.4893   10.9367 C.ar    1  UNL1        0.0015
     18 C          63.5131   83.0893   12.1939 C.ar    1  UNL1        0.0172
     19 C          63.2856   83.8078   13.4909 C.ar    1  UNL1        0.0184
     20 C          63.6947   85.1693   13.9692 C.ar    1  UNL1        0.0162
     21 C          63.3152   85.6257   15.3468 C.ar    1  UNL1        0.0504
     22 C          62.5264   84.7205   16.2460 C.ar    1  UNL1        0.0162
     23 C          62.1172   83.3590   15.7677 C.ar    1  UNL1        0.0185
     24 C          62.4968   82.9026   14.3901 C.ar    1  UNL1        0.0600
     25 C          59.9815   80.4519   14.1855 C.3     1  UNL1        0.0265
     26 C          61.4814   80.4395   14.1730 C.3     1  UNL1        0.1061
     27 C          66.1464   92.8593   13.5029 C.3     1  UNL1        0.1056
     28 C          65.5849   93.1677   12.1465 C.3     1  UNL1        0.1700
     29 O          65.7685   94.5322   11.5513 O.3     1  UNL1       -0.3793
     30 H          66.2680   95.0896   12.1684 H       1  UNL1        0.2106
     31 C          64.8399   92.1115   11.3855 C.3     1  UNL1        0.2358
     32 O          63.4163   91.7965   11.7381 O.3     1  UNL1       -0.4727
     33 C          62.7922   90.5169   11.2658 C.ar    1  UNL1        0.1402
     34 C          63.1526   89.2186   11.9250 C.ar    1  UNL1        0.0375
     35 C          62.5284   87.9390   11.4527 C.ar    1  UNL1        0.0111
     36 C          61.5439   87.9577   10.3213 C.ar    1  UNL1        0.0484
     37 S          60.7719   86.8642    9.6443 S.2     1  UNL1       -0.0708
     38 C          59.9343   87.4866    8.5668 C.ar    1  UNL1        0.0886
     39 C          59.0055   86.7586    7.6409 C.3     1  UNL1        0.0594
     40 N          60.1887   88.9648    8.5778 N.ar    1  UNL1       -0.2426
     41 C          61.1834   89.2560    9.6621 C.ar    1  UNL1        0.0905
     42 C          61.8075   90.5356   10.1344 C.ar    1  UNL1        0.0565
@<TRIPOS>BOND
     1    25    26    1
     2    26    12    1
     3    12    13   ar
     4    13    14   ar
     5    14    15   ar
     6    15    16   ar
     7    16    17   ar
     8    17    18   ar
     9    18    19   ar
    10    19    20   ar
    11    20    21   ar
    12    21     8    1
    13     8     9   am
    14     9    10    2
    15     9     7    1
    16     7     1    1
    17     1     2    1
    18     2     3    1
    19     3     4    1
    20     4    27    1
    21    27    28    1
    22    28    29    1
    23    28    31    1
    24    31    32    1
    25    32    33    1
    26    33    34   ar
    27    34    35   ar
    28    35    36   ar
    29    36    37   ar
    30    37    38   ar
    31    38    39    1
    32    38    40   ar
    33    40    41   ar
    34    41    42   ar
    35     4     5    1
    36     5     6    1
    37    21    22   ar
    38    22    23   ar
    39    23    24   ar
    40    24    12   ar
    41    18    13   ar
    42    24    19   ar
    43     6     1    1
    44    42    33   ar
    45    41    36   ar
    46     8    11    1
    47    29    30    1
@<TRIPOS>MOLECULE
*****
 42 47 0 0 0
SMALL
GASTEIGER

@<TRIPOS>ATOM
      1 N          59.2857   90.0744    5.9880 N.3     1  UNL1       -0.2626
      2 C          60.6664   90.3565    5.4742 C.3     1  UNL1        0.0900
      3 C          60.8830   91.4434    4.4633 C.3     1  UNL1        0.0897
      4 N          59.7189   92.2481    3.9662 N.3     1  UNL1       -0.2682
      5 C          58.3381   91.9661    4.4800 C.3     1  UNL1        0.0897
      6 C          58.1215   90.8792    5.4910 C.3     1  UNL1        0.0900
      7 C          59.0692   88.9877    6.9989 C.3     1  UNL1        0.1588
      8 N          60.1974   90.1372    9.0374 N.am    1  UNL1       -0.2828
      9 C          59.9444   88.9088    8.2145 C.2     1  UNL1        0.2425
     10 O          60.5665   87.6017    8.6073 O.2     1  UNL1       -0.2733
     11 H          59.7891   90.9951    8.7796 H       1  UNL1        0.1549
     12 N          63.8708   90.0363   13.7492 N.ar    1  UNL1       -0.3272
     13 C          64.8783   91.0449   13.2827 C.ar    1  UNL1        0.0599
     14 C          66.1278   91.5821   13.9153 C.ar    1  UNL1        0.0172
     15 C          66.9523   92.6071   13.1946 C.ar    1  UNL1        0.0015
     16 C          66.5274   93.0949   11.8412 C.ar    1  UNL1        0.0001
     17 C          65.2779   92.5577   11.2086 C.ar    1  UNL1        0.0015
     18 C          64.4534   91.5327   11.9294 C.ar    1  UNL1        0.0172
     19 C          63.1833   90.8256   11.5596 C.ar    1  UNL1        0.0184
     20 C          62.3080   90.9044   10.3440 C.ar    1  UNL1        0.0162
     21 C          61.0727   90.0584   10.2531 C.ar    1  UNL1        0.0504
     22 C          60.7126   89.1335   11.3778 C.ar    1  UNL1        0.0162
     23 C          61.5878   89.0548   12.5934 C.ar    1  UNL1        0.0185
     24 C          62.8232   89.9008   12.6843 C.ar    1  UNL1        0.0600
     25 C          63.2534   89.8824   16.2683 C.3     1  UNL1        0.0265
     26 C          63.9049   89.2937   15.0521 C.3     1  UNL1        0.1061
     27 C          59.9355   93.3349    2.9553 C.3     1  UNL1        0.1056
     28 C          60.8312   93.0949    1.7763 C.3     1  UNL1        0.1700
     29 O          62.2054   93.6954    1.7439 O.3     1  UNL1       -0.3793
     30 H          62.3547   94.2051    2.5555 H       1  UNL1        0.2106
     31 C          60.3527   92.2545    0.6298 C.3     1  UNL1        0.2358
     32 O          60.1107   92.8826   -0.7108 O.3     1  UNL1       -0.4727
     33 C          58.9664   93.8344   -0.8974 C.ar    1  UNL1        0.1402
     34 C          59.1932   95.3124   -0.7790 C.ar    1  UNL1        0.0375
     35 C          58.0489   96.2641   -0.9657 C.ar    1  UNL1        0.0111
     36 C          56.6779   95.7378   -1.2708 C.ar    1  UNL1        0.0484
     37 S          55.3667   96.4281   -1.5043 S.2     1  UNL1       -0.0708
     38 C          54.3296   95.3768   -1.7669 C.ar    1  UNL1        0.0886
     39 C          52.8774   95.6224   -2.0509 C.3     1  UNL1        0.0594
     40 N          54.9998   94.0367   -1.6958 N.ar    1  UNL1       -0.2426
     41 C          56.4510   94.2598   -1.3892 C.ar    1  UNL1        0.0905
     42 C          57.5953   93.3081   -1.2025 C.ar    1  UNL1        0.0565
@<TRIPOS>BOND
     1    25    26    1
     2    26    12    1
     3    12    13   ar
     4    13    14   ar
     5    14    15   ar
     6    15    16   ar
     7    16    17   ar
     8    17    18   ar
     9    18    19   ar
    10    19    20   ar
    11    20    21   ar
    12    21     8    1
    13     8     9   am
    14     9    10    2
    15     9     7    1
    16     7     1    1
    17     1     2    1
    18     2     3    1
    19     3     4    1
    20     4    27    1
    21    27    28    1
    22    28    29    1
    23    28    31    1
    24    31    32    1
    25    32    33    1
    26    33    34   ar
    27    34    35   ar
    28    35    36   ar
    29    36    37   ar
    30    37    38   ar
    31    38    39    1
    32    38    40   ar
    33    40    41   ar
    34    41    42   ar
    35     4     5    1
    36     5     6    1
    37    21    22   ar
    38    22    23   ar
    39    23    24   ar
    40    24    12   ar
    41    18    13   ar
    42    24    19   ar
    43     6     1    1
    44    42    33   ar
    45    41    36   ar
    46     8    11    1
    47    29    30    1
@<TRIPOS>MOLECULE
*****
 42 47 0 0 0
SMALL
GASTEIGER

@<TRIPOS>ATOM
      1 N          59.3178   90.0716    6.0004 N.3     1  UNL1       -0.2626
      2 C          58.1453   90.8532    5.4860 C.3     1  UNL1        0.0900
      3 C          58.3526   91.9300    4.4625 C.3     1  UNL1        0.0897
      4 N          59.7323   92.2252    3.9533 N.3     1  UNL1       -0.2682
      5 C          60.9048   91.4437    4.4676 C.3     1  UNL1        0.0897
      6 C          60.6975   90.3668    5.4912 C.3     1  UNL1        0.0900
      7 C          59.1105   88.9949    7.0238 C.3     1  UNL1        0.1588
      8 N          60.0804   90.1946    9.1142 N.am    1  UNL1       -0.2828
      9 C          59.9547   88.9657    8.2633 C.2     1  UNL1        0.2425
     10 O          60.6732   87.7077    8.6519 O.2     1  UNL1       -0.2733
     11 H          59.6088   91.0203    8.8592 H       1  UNL1        0.1549
     12 N          63.6531   90.2557   13.9035 N.ar    1  UNL1       -0.3272
     13 C          64.7656   91.0995   13.3554 C.ar    1  UNL1        0.0599
     14 C          66.0539   91.5764   13.9576 C.ar    1  UNL1        0.0172
     15 C          66.9898   92.4262   13.1504 C.ar    1  UNL1        0.0015
     16 C          66.6374   92.7992   11.7408 C.ar    1  UNL1        0.0001
     17 C          65.3491   92.3223   11.1386 C.ar    1  UNL1        0.0015
     18 C          64.4132   91.4724   11.9459 C.ar    1  UNL1        0.0172
     19 C          63.0829   90.8591   11.6229 C.ar    1  UNL1        0.0184
     20 C          62.2387   90.8883   10.3834 C.ar    1  UNL1        0.0162
     21 C          60.9246   90.1654   10.3538 C.ar    1  UNL1        0.0504
     22 C          60.4549   89.4135   11.5637 C.ar    1  UNL1        0.0162
     23 C          61.2991   89.3843   12.8032 C.ar    1  UNL1        0.0185
     24 C          62.6131   90.1072   12.8328 C.ar    1  UNL1        0.0600
     25 C          63.5065   90.5622   16.4794 C.3     1  UNL1        0.0265
     26 C          63.5914   89.6643   15.2806 C.3     1  UNL1        0.1061
     27 C          59.9396   93.3020    2.9298 C.3     1  UNL1        0.1056
     28 C          60.6689   92.9952    1.6554 C.3     1  UNL1        0.1700
     29 O          62.1592   92.8256    1.6664 O.3     1  UNL1       -0.3793
     30 H          62.4916   92.9454    2.5697 H       1  UNL1        0.2106
     31 C          59.9078   92.8579    0.3702 C.3     1  UNL1        0.2358
     32 O          58.5157   93.4056    0.2608 O.3     1  UNL1       -0.4727
     33 C          57.8315   93.4543   -1.0733 C.ar    1  UNL1        0.1402
     34 C          56.9552   94.6198   -1.4247 C.ar    1  UNL1        0.0375
     35 C          56.2711   94.6684   -2.7587 C.ar    1  UNL1        0.0111
     36 C          56.4633   93.5515   -3.7412 C.ar    1  UNL1        0.0484
     37 S          55.9225   93.3251   -5.1219 S.2     1  UNL1       -0.0708
     38 C          56.4646   92.0196   -5.6238 C.ar    1  UNL1        0.0886
     39 C          56.1806   91.4028   -6.9613 C.3     1  UNL1        0.0594
     40 N          57.3405   91.4392   -4.5533 N.ar    1  UNL1       -0.2426
     41 C          57.3397   92.3859   -3.3899 C.ar    1  UNL1        0.0905
     42 C          58.0238   92.3374   -2.0559 C.ar    1  UNL1        0.0565
@<TRIPOS>BOND
     1    25    26    1
     2    26    12    1
     3    12    13   ar
     4    13    14   ar
     5    14    15   ar
     6    15    16   ar
     7    16    17   ar
     8    17    18   ar
     9    18    19   ar
    10    19    20   ar
    11    20    21   ar
    12    21     8    1
    13     8     9   am
    14     9    10    2
    15     9     7    1
    16     7     1    1
    17     1     2    1
    18     2     3    1
    19     3     4    1
    20     4    27    1
    21    27    28    1
    22    28    29    1
    23    28    31    1
    24    31    32    1
    25    32    33    1
    26    33    34   ar
    27    34    35   ar
    28    35    36   ar
    29    36    37   ar
    30    37    38   ar
    31    38    39    1
    32    38    40   ar
    33    40    41   ar
    34    41    42   ar
    35     4     5    1
    36     5     6    1
    37    21    22   ar
    38    22    23   ar
    39    23    24   ar
    40    24    12   ar
    41    18    13   ar
    42    24    19   ar
    43     6     1    1
    44    42    33   ar
    45    41    36   ar
    46     8    11    1
    47    29    30    1
@<TRIPOS>MOLECULE
*****
 42 47 0 0 0
SMALL
GASTEIGER

@<TRIPOS>ATOM
      1 N          59.2870   90.0095    6.0800 N.3     1  UNL1       -0.2626
      2 C          58.0884   90.7784    5.6085 C.3     1  UNL1        0.0900
      3 C          58.2511   91.8760    4.5990 C.3     1  UNL1        0.0897
      4 N          59.6121   92.2046    4.0611 N.3     1  UNL1       -0.2682
      5 C          60.8107   91.4357    4.5325 C.3     1  UNL1        0.0897
      6 C          60.6481   90.3381    5.5420 C.3     1  UNL1        0.0900
      7 C          59.1244   88.9120    7.0894 C.3     1  UNL1        0.1588
      8 N          60.0961   90.1470    9.1582 N.am    1  UNL1       -0.2828
      9 C          59.9674   88.9031    8.3300 C.2     1  UNL1        0.2425
     10 O          60.6817   87.6503    8.7424 O.2     1  UNL1       -0.2733
     11 H          59.6273   90.9693    8.8876 H       1  UNL1        0.1549
     12 N          63.6641   90.2866   13.9494 N.ar    1  UNL1       -0.3272
     13 C          64.7766   91.1224   13.3890 C.ar    1  UNL1        0.0599
     14 C          66.0640   91.6097   13.9849 C.ar    1  UNL1        0.0172
     15 C          67.0001   92.4473   13.1651 C.ar    1  UNL1        0.0015
     16 C          66.6489   92.7976   11.7495 C.ar    1  UNL1        0.0001
     17 C          65.3615   92.3103   11.1537 C.ar    1  UNL1        0.0015
     18 C          64.4253   91.4727   11.9734 C.ar    1  UNL1        0.0172
     19 C          63.0958   90.8534   11.6590 C.ar    1  UNL1        0.0184
     20 C          62.2527   90.8623   10.4183 C.ar    1  UNL1        0.0162
     21 C          60.9392   90.1381   10.3989 C.ar    1  UNL1        0.0504
     22 C          60.4688   89.4051   11.6202 C.ar    1  UNL1        0.0162
     23 C          61.3118   89.3962   12.8608 C.ar    1  UNL1        0.0185
     24 C          62.6253   90.1204   12.8802 C.ar    1  UNL1        0.0600
     25 C          63.5297   90.6341   16.5207 C.3     1  UNL1        0.0265
     26 C          63.6015   89.7171   15.3357 C.3     1  UNL1        0.1061
     27 C          59.7747   93.3022    3.0516 C.3     1  UNL1        0.1056
     28 C          60.1435   92.9706    1.6359 C.3     1  UNL1        0.1700
     29 O          59.0690   92.7053    0.6235 O.3     1  UNL1       -0.3793
     30 H          58.1995   92.7881    1.0455 H       1  UNL1        0.2106
     31 C          61.5867   92.9043    1.2328 C.3     1  UNL1        0.2358
     32 O          62.3336   94.1643    0.9095 O.3     1  UNL1       -0.4727
     33 C          62.9595   94.3393   -0.4425 C.ar    1  UNL1        0.1402
     34 C          63.7817   95.5590   -0.7362 C.ar    1  UNL1        0.0375
     35 C          64.4076   95.7339   -2.0881 C.ar    1  UNL1        0.0111
     36 C          64.2112   94.6891   -3.1462 C.ar    1  UNL1        0.0484
     37 S          64.7012   94.5883   -4.5605 S.2     1  UNL1       -0.0708
     38 C          64.1818   93.3063   -5.1407 C.ar    1  UNL1        0.0886
     39 C          64.4298   92.8041   -6.5322 C.3     1  UNL1        0.0594
     40 N          63.3709   92.6148   -4.0852 N.ar    1  UNL1       -0.2426
     41 C          63.3891   93.4693   -2.8526 C.ar    1  UNL1        0.0905
     42 C          62.7632   93.2944   -1.5007 C.ar    1  UNL1        0.0565
@<TRIPOS>BOND
     1    25    26    1
     2    26    12    1
     3    12    13   ar
     4    13    14   ar
     5    14    15   ar
     6    15    16   ar
     7    16    17   ar
     8    17    18   ar
     9    18    19   ar
    10    19    20   ar
    11    20    21   ar
    12    21     8    1
    13     8     9   am
    14     9    10    2
    15     9     7    1
    16     7     1    1
    17     1     2    1
    18     2     3    1
    19     3     4    1
    20     4    27    1
    21    27    28    1
    22    28    29    1
    23    28    31    1
    24    31    32    1
    25    32    33    1
    26    33    34   ar
    27    34    35   ar
    28    35    36   ar
    29    36    37   ar
    30    37    38   ar
    31    38    39    1
    32    38    40   ar
    33    40    41   ar
    34    41    42   ar
    35     4     5    1
    36     5     6    1
    37    21    22   ar
    38    22    23   ar
    39    23    24   ar
    40    24    12   ar
    41    18    13   ar
    42    24    19   ar
    43     6     1    1
    44    42    33   ar
    45    41    36   ar
    46     8    11    1
    47    29    30    1
@<TRIPOS>MOLECULE
*****
 42 47 0 0 0
SMALL
GASTEIGER

@<TRIPOS>ATOM
      1 N          60.3253   88.8695    8.7422 N.3     1  UNL1       -0.2626
      2 C          60.3896   90.1831    9.4634 C.3     1  UNL1        0.0900
      3 C          61.3787   90.3816   10.5736 C.3     1  UNL1        0.0897
      4 N          62.3035   89.2664   10.9624 N.3     1  UNL1       -0.2682
      5 C          62.2392   87.9528   10.2412 C.3     1  UNL1        0.0897
      6 C          61.2500   87.7543    9.1310 C.3     1  UNL1        0.0900
      7 C          59.3363   88.6710    7.6321 C.3     1  UNL1        0.1588
      8 N          60.5580   90.2163    5.9382 N.am    1  UNL1       -0.2828
      9 C          59.2869   89.6412    6.4892 C.2     1  UNL1        0.2425
     10 O          57.9666   90.0363    5.8973 O.2     1  UNL1       -0.2733
     11 H          61.4246   89.9570    6.3268 H       1  UNL1        0.1549
     12 N          60.6654   94.0278    1.3375 N.ar    1  UNL1       -0.3272
     13 C          62.1113   93.8987    0.9598 C.ar    1  UNL1        0.0599
     14 C          62.9290   94.5474   -0.1174 C.ar    1  UNL1        0.0172
     15 C          64.3852   94.2155   -0.2561 C.ar    1  UNL1        0.0015
     16 C          65.0237   93.2349    0.6824 C.ar    1  UNL1        0.0001
     17 C          64.2060   92.5862    1.7596 C.ar    1  UNL1        0.0015
     18 C          62.7498   92.9181    1.8983 C.ar    1  UNL1        0.0172
     19 C          61.6984   92.4412    2.8560 C.ar    1  UNL1        0.0184
     20 C          61.7477   91.4710    3.9989 C.ar    1  UNL1        0.0162
     21 C          60.5087   91.1866    4.7953 C.ar    1  UNL1        0.0504
     22 C          59.2205   91.8724    4.4487 C.ar    1  UNL1        0.0162
     23 C          59.1712   92.8426    3.3057 C.ar    1  UNL1        0.0185
     24 C          60.4102   93.1270    2.5094 C.ar    1  UNL1        0.0600
     25 C          58.7125   94.3201   -0.3511 C.3     1  UNL1        0.0265
     26 C          59.6525   94.9039    0.6618 C.3     1  UNL1        0.1061
     27 C          63.2925   89.4649   12.0726 C.3     1  UNL1        0.1056
     28 C          62.8104   89.7092   13.4718 C.3     1  UNL1        0.1700
     29 O          61.3542   89.9588   13.7305 O.3     1  UNL1       -0.3793
     30 H          60.8670   89.9286   12.8923 H       1  UNL1        0.2106
     31 C          63.7846   89.7038   14.6123 C.3     1  UNL1        0.2358
     32 O          64.6968   88.5302   14.8140 O.3     1  UNL1       -0.4727
     33 C          64.1286   87.1443   14.8967 C.ar    1  UNL1        0.1402
     34 C          63.6239   86.6176   16.2073 C.ar    1  UNL1        0.0375
     35 C          63.0559   85.2318   16.2899 C.ar    1  UNL1        0.0111
     36 C          62.9925   84.3728   15.0620 C.ar    1  UNL1        0.0484
     37 S          62.4898   82.9773   14.8380 S.2     1  UNL1       -0.0708
     38 C          62.6839   82.6416   13.3890 C.ar    1  UNL1        0.0886
     39 C          62.3194   81.3456   12.7278 C.3     1  UNL1        0.0594
     40 N          63.3065   83.8296   12.7174 N.ar    1  UNL1       -0.2426
     41 C          63.4972   84.8994   13.7513 C.ar    1  UNL1        0.0905
     42 C          64.0653   86.2852   13.6687 C.ar    1  UNL1        0.0565
@<TRIPOS>BOND
     1    25    26    1
     2    26    12    1
     3    12    13   ar
     4    13    14   ar
     5    14    15   ar
     6    15    16   ar
     7    16    17   ar
     8    17    18   ar
     9    18    19   ar
    10    19    20   ar
    11    20    21   ar
    12    21     8    1
    13     8     9   am
    14     9    10    2
    15     9     7    1
    16     7     1    1
    17     1     2    1
    18     2     3    1
    19     3     4    1
    20     4    27    1
    21    27    28    1
    22    28    29    1
    23    28    31    1
    24    31    32    1
    25    32    33    1
    26    33    34   ar
    27    34    35   ar
    28    35    36   ar
    29    36    37   ar
    30    37    38   ar
    31    38    39    1
    32    38    40   ar
    33    40    41   ar
    34    41    42   ar
    35     4     5    1
    36     5     6    1
    37    21    22   ar
    38    22    23   ar
    39    23    24   ar
    40    24    12   ar
    41    18    13   ar
    42    24    19   ar
    43     6     1    1
    44    42    33   ar
    45    41    36   ar
    46     8    11    1
    47    29    30    1
@<TRIPOS>MOLECULE
*****
 42 47 0 0 0
SMALL
GASTEIGER

@<TRIPOS>ATOM
      1 N          59.3039   89.2238    7.3038 N.3     1  UNL1       -0.2626
      2 C          59.2390   87.7499    7.0330 C.3     1  UNL1        0.0900
      3 C          60.0239   86.7958    7.8838 C.3     1  UNL1        0.0897
      4 N          60.8735   87.3156    9.0053 N.3     1  UNL1       -0.2682
      5 C          60.9384   88.7896    9.2761 C.3     1  UNL1        0.0897
      6 C          60.1536   89.7437    8.4253 C.3     1  UNL1        0.0900
      7 C          58.5191   90.1778    6.4530 C.3     1  UNL1        0.1588
      8 N          60.6752   90.8198    5.1534 N.am    1  UNL1       -0.2828
      9 C          59.1850   90.8862    5.3107 C.2     1  UNL1        0.2425
     10 O          58.3606   91.6608    4.3258 O.2     1  UNL1       -0.2733
     11 H          61.2162   90.3113    5.7999 H       1  UNL1        0.1549
     12 N          63.0611   93.7957    0.5538 N.ar    1  UNL1       -0.3272
     13 C          61.8723   94.6260    0.1698 C.ar    1  UNL1        0.0599
     14 C          61.6673   95.6460   -0.9108 C.ar    1  UNL1        0.0172
     15 C          60.3393   96.3281   -1.0560 C.ar    1  UNL1        0.0015
     16 C          59.2164   95.9902   -0.1207 C.ar    1  UNL1        0.0001
     17 C          59.4214   94.9703    0.9599 C.ar    1  UNL1        0.0015
     18 C          60.7494   94.2882    1.1051 C.ar    1  UNL1        0.0172
     19 C          61.2441   93.2491    2.0672 C.ar    1  UNL1        0.0184
     20 C          60.5783   92.5408    3.2095 C.ar    1  UNL1        0.0162
     21 C          61.3411   91.5281    4.0111 C.ar    1  UNL1        0.0504
     22 C          62.7699   91.2238    3.6704 C.ar    1  UNL1        0.0162
     23 C          63.4357   91.9321    2.5281 C.ar    1  UNL1        0.0185
     24 C          62.6729   92.9448    1.7265 C.ar    1  UNL1        0.0600
     25 C          65.2708   95.0333   -0.0260 C.3     1  UNL1        0.0265
     26 C          64.4026   93.8134   -0.1171 C.3     1  UNL1        0.1061
     27 C          61.6583   86.3615    9.8561 C.3     1  UNL1        0.1056
     28 C          62.0679   86.7568   11.2439 C.3     1  UNL1        0.1700
     29 O          62.1495   85.7207   12.3255 O.3     1  UNL1       -0.3793
     30 H          61.9075   84.8544   11.9623 H       1  UNL1        0.2106
     31 C          62.3958   88.1880   11.5501 C.3     1  UNL1        0.2358
     32 O          63.0141   88.5504   12.8678 O.3     1  UNL1       -0.4727
     33 C          63.8611   89.7829   12.9852 C.ar    1  UNL1        0.1402
     34 C          63.8042   90.8364   11.9190 C.ar    1  UNL1        0.0375
     35 C          64.6512   92.0688   12.0364 C.ar    1  UNL1        0.0111
     36 C          65.5551   92.2476   13.2200 C.ar    1  UNL1        0.0484
     37 S          66.4989   93.3481   13.6050 S.2     1  UNL1       -0.0708
     38 C          67.1391   92.9747   14.9091 C.ar    1  UNL1        0.0886
     39 C          68.1499   93.7895   15.6603 C.3     1  UNL1        0.0594
     40 N          66.5909   91.6435   15.3302 N.ar    1  UNL1       -0.2426
     41 C          65.6120   91.1942   14.2863 C.ar    1  UNL1        0.0905
     42 C          64.7650   89.9618   14.1689 C.ar    1  UNL1        0.0565
@<TRIPOS>BOND
     1    25    26    1
     2    26    12    1
     3    12    13   ar
     4    13    14   ar
     5    14    15   ar
     6    15    16   ar
     7    16    17   ar
     8    17    18   ar
     9    18    19   ar
    10    19    20   ar
    11    20    21   ar
    12    21     8    1
    13     8     9   am
    14     9    10    2
    15     9     7    1
    16     7     1    1
    17     1     2    1
    18     2     3    1
    19     3     4    1
    20     4    27    1
    21    27    28    1
    22    28    29    1
    23    28    31    1
    24    31    32    1
    25    32    33    1
    26    33    34   ar
    27    34    35   ar
    28    35    36   ar
    29    36    37   ar
    30    37    38   ar
    31    38    39    1
    32    38    40   ar
    33    40    41   ar
    34    41    42   ar
    35     4     5    1
    36     5     6    1
    37    21    22   ar
    38    22    23   ar
    39    23    24   ar
    40    24    12   ar
    41    18    13   ar
    42    24    19   ar
    43     6     1    1
    44    42    33   ar
    45    41    36   ar
    46     8    11    1
    47    29    30    1
@<TRIPOS>MOLECULE
*****
 42 47 0 0 0
SMALL
GASTEIGER

@<TRIPOS>ATOM
      1 N          61.3009   86.9189   10.3853 N.3     1  UNL1       -0.2626
      2 C          61.5897   86.0077   11.5413 C.3     1  UNL1        0.0900
      3 C          62.2841   84.6985   11.3092 C.3     1  UNL1        0.0897
      4 N          62.6898   84.3005    9.9210 N.3     1  UNL1       -0.2682
      5 C          62.4010   85.2116    8.7649 C.3     1  UNL1        0.0897
      6 C          61.7065   86.5209    8.9971 C.3     1  UNL1        0.0900
      7 C          60.6065   88.2280   10.6174 C.3     1  UNL1        0.1588
      8 N          62.8940   89.3676   11.0849 N.am    1  UNL1       -0.2828
      9 C          61.4097   89.4649   10.8910 C.2     1  UNL1        0.2425
     10 O          60.7288   90.7989   10.9708 O.2     1  UNL1       -0.2733
     11 H          63.3409   88.4920   11.0325 H       1  UNL1        0.1549
     12 N          66.1866   94.1654   12.4432 N.ar    1  UNL1       -0.3272
     13 C          66.7351   93.7076   13.7622 C.ar    1  UNL1        0.0599
     14 C          67.6595   94.3612   14.7461 C.ar    1  UNL1        0.0172
     15 C          68.0401   93.6448   16.0078 C.ar    1  UNL1        0.0015
     16 C          67.4962   92.2747   16.2855 C.ar    1  UNL1        0.0001
     17 C          66.5718   91.6211   15.3015 C.ar    1  UNL1        0.0015
     18 C          66.1913   92.3375   14.0399 C.ar    1  UNL1        0.0172
     19 C          65.3067   91.9486   12.8926 C.ar    1  UNL1        0.0184
     20 C          64.5034   90.7118   12.6189 C.ar    1  UNL1        0.0162
     21 C          63.6972   90.6046   11.3585 C.ar    1  UNL1        0.0504
     22 C          63.6943   91.7343   10.3717 C.ar    1  UNL1        0.0162
     23 C          64.4976   92.9712   10.6454 C.ar    1  UNL1        0.0185
     24 C          65.3038   93.0783   11.9058 C.ar    1  UNL1        0.0600
     25 C          66.8559   95.5193   10.3292 C.3     1  UNL1        0.0265
     26 C          66.4710   95.4797   11.7785 C.3     1  UNL1        0.1061
     27 C          63.3842   82.9913    9.6889 C.3     1  UNL1        0.1056
     28 C          63.8306   82.1618   10.8563 C.3     1  UNL1        0.1700
     29 O          65.2567   82.2215   11.3171 O.3     1  UNL1       -0.3793
     30 H          65.7520   82.8394   10.7569 H       1  UNL1        0.2106
     31 C          62.8507   81.2726   11.5627 C.3     1  UNL1        0.2358
     32 O          62.7676   81.2889   13.0603 O.3     1  UNL1       -0.4727
     33 C          63.1798   82.5142   13.8211 C.ar    1  UNL1        0.1402
     34 C          64.5344   83.1173   13.5946 C.ar    1  UNL1        0.0375
     35 C          64.9465   84.3426   14.3553 C.ar    1  UNL1        0.0111
     36 C          64.0041   84.9648   15.3425 C.ar    1  UNL1        0.0484
     37 S          64.1315   86.1657   16.2324 S.2     1  UNL1       -0.0708
     38 C          62.8556   86.3047   17.0088 C.ar    1  UNL1        0.0886
     39 C          62.5495   87.3714   18.0180 C.3     1  UNL1        0.0594
     40 N          61.9397   85.1898   16.5988 N.ar    1  UNL1       -0.2426
     41 C          62.6494   84.3617   15.5691 C.ar    1  UNL1        0.0905
     42 C          62.2373   83.1364   14.8083 C.ar    1  UNL1        0.0565
@<TRIPOS>BOND
     1    25    26    1
     2    26    12    1
     3    12    13   ar
     4    13    14   ar
     5    14    15   ar
     6    15    16   ar
     7    16    17   ar
     8    17    18   ar
     9    18    19   ar
    10    19    20   ar
    11    20    21   ar
    12    21     8    1
    13     8     9   am
    14     9    10    2
    15     9     7    1
    16     7     1    1
    17     1     2    1
    18     2     3    1
    19     3     4    1
    20     4    27    1
    21    27    28    1
    22    28    29    1
    23    28    31    1
    24    31    32    1
    25    32    33    1
    26    33    34   ar
    27    34    35   ar
    28    35    36   ar
    29    36    37   ar
    30    37    38   ar
    31    38    39    1
    32    38    40   ar
    33    40    41   ar
    34    41    42   ar
    35     4     5    1
    36     5     6    1
    37    21    22   ar
    38    22    23   ar
    39    23    24   ar
    40    24    12   ar
    41    18    13   ar
    42    24    19   ar
    43     6     1    1
    44    42    33   ar
    45    41    36   ar
    46     8    11    1
    47    29    30    1
@<TRIPOS>MOLECULE
*****
 42 47 0 0 0
SMALL
GASTEIGER

@<TRIPOS>ATOM
      1 N          59.2369   90.0064    5.9366 N.3     1  UNL1       -0.2626
      2 C          58.0820   90.8633    5.5101 C.3     1  UNL1        0.0900
      3 C          58.3023   91.9962    4.5519 C.3     1  UNL1        0.0897
      4 N          59.6775   92.2723    4.0203 N.3     1  UNL1       -0.2682
      5 C          60.8324   91.4154    4.4468 C.3     1  UNL1        0.0897
      6 C          60.6121   90.2824    5.4050 C.3     1  UNL1        0.0900
      7 C          59.0166   88.8736    6.8947 C.3     1  UNL1        0.1588
      8 N          60.3851   89.8943    8.8531 N.am    1  UNL1       -0.2828
      9 C          59.9305   88.6977    8.0711 C.2     1  UNL1        0.2425
     10 O          60.3897   87.3254    8.4655 O.2     1  UNL1       -0.2733
     11 H          60.0837   90.7950    8.5942 H       1  UNL1        0.1549
     12 N          63.9820   88.8856   13.5168 N.ar    1  UNL1       -0.3272
     13 C          63.8926   87.3889   13.5625 C.ar    1  UNL1        0.0599
     14 C          64.5226   86.3730   14.4685 C.ar    1  UNL1        0.0172
     15 C          64.2421   84.9132   14.2682 C.ar    1  UNL1        0.0015
     16 C          63.3316   84.4693   13.1619 C.ar    1  UNL1        0.0001
     17 C          62.7016   85.4852   12.2559 C.ar    1  UNL1        0.0015
     18 C          62.9821   86.9450   12.4562 C.ar    1  UNL1        0.0172
     19 C          62.5088   88.1673   11.7268 C.ar    1  UNL1        0.0184
     20 C          61.5949   88.3432   10.5504 C.ar    1  UNL1        0.0162
     21 C          61.2990   89.7184   10.0295 C.ar    1  UNL1        0.0504
     22 C          61.9170   90.9178   10.6850 C.ar    1  UNL1        0.0162
     23 C          62.8309   90.7419   11.8614 C.ar    1  UNL1        0.0185
     24 C          63.1268   89.3667   12.3823 C.ar    1  UNL1        0.0600
     25 C          64.0930   90.7200   15.3533 C.3     1  UNL1        0.0265
     26 C          64.7856   89.7494   14.4431 C.3     1  UNL1        0.1061
     27 C          59.8977   93.4052    3.0622 C.3     1  UNL1        0.1056
     28 C          60.8124   93.2263    1.8868 C.3     1  UNL1        0.1700
     29 O          62.1062   93.9825    1.8214 O.3     1  UNL1       -0.3793
     30 H          62.1966   94.5375    2.6118 H       1  UNL1        0.2106
     31 C          60.4332   92.2914    0.7769 C.3     1  UNL1        0.2358
     32 O          60.2060   92.8234   -0.6071 O.3     1  UNL1       -0.4727
     33 C          59.0751   93.7734   -0.8692 C.ar    1  UNL1        0.1402
     34 C          59.3355   95.2491   -0.9365 C.ar    1  UNL1        0.0375
     35 C          58.2045   96.1990   -1.1986 C.ar    1  UNL1        0.0111
     36 C          56.8134   95.6732   -1.3934 C.ar    1  UNL1        0.0484
     37 S          55.5088   96.3621   -1.6652 S.2     1  UNL1       -0.0708
     38 C          54.4423   95.3122   -1.7658 C.ar    1  UNL1        0.0886
     39 C          52.9862   95.5571   -2.0297 C.3     1  UNL1        0.0594
     40 N          55.0876   93.9744   -1.5564 N.ar    1  UNL1       -0.2426
     41 C          56.5529   94.1975   -1.3262 C.ar    1  UNL1        0.0905
     42 C          57.6838   93.2476   -1.0641 C.ar    1  UNL1        0.0565
@<TRIPOS>BOND
     1    25    26    1
     2    26    12    1
     3    12    13   ar
     4    13    14   ar
     5    14    15   ar
     6    15    16   ar
     7    16    17   ar
     8    17    18   ar
     9    18    19   ar
    10    19    20   ar
    11    20    21   ar
    12    21     8    1
    13     8     9   am
    14     9    10    2
    15     9     7    1
    16     7     1    1
    17     1     2    1
    18     2     3    1
    19     3     4    1
    20     4    27    1
    21    27    28    1
    22    28    29    1
    23    28    31    1
    24    31    32    1
    25    32    33    1
    26    33    34   ar
    27    34    35   ar
    28    35    36   ar
    29    36    37   ar
    30    37    38   ar
    31    38    39    1
    32    38    40   ar
    33    40    41   ar
    34    41    42   ar
    35     4     5    1
    36     5     6    1
    37    21    22   ar
    38    22    23   ar
    39    23    24   ar
    40    24    12   ar
    41    18    13   ar
    42    24    19   ar
    43     6     1    1
    44    42    33   ar
    45    41    36   ar
    46     8    11    1
    47    29    30    1
