@<TRIPOS>MOLECULE
*****
 12 13 0 0 0
SMALL
GASTEIGER

@<TRIPOS>ATOM
      1 C          68.0967   91.9821    9.7177 C.3     1  UNL1        0.0722
      2 C          67.5087   93.3540    9.8666 C.ar    1  UNL1        0.1247
      3 N          68.0716   94.6213    9.2945 N.ar    1  UNL1       -0.2290
      4 C          67.1654   95.7501    9.6880 C.ar    1  UNL1        0.1192
      5 C          66.0426   95.1804   10.5033 C.ar    1  UNL1        0.1019
      6 N          66.2548   93.6996   10.6137 N.ar    1  UNL1       -0.2907
      7 C          65.3685   92.7338   11.3431 C.ar    1  UNL1        0.0843
      8 C          64.3391   91.9447   10.5898 C.ar    1  UNL1        0.0207
      9 C          63.4529   90.9790   11.3193 C.ar    1  UNL1        0.0222
     10 C          63.5961   90.8025   12.8020 C.ar    1  UNL1        0.0990
     11 N          64.6256   91.5917   13.5552 N.ar    1  UNL1       -0.2408
     12 C          65.5118   92.5574   12.8258 C.ar    1  UNL1        0.1163
@<TRIPOS>BOND
     1     1     2    1
     2     2     3   ar
     3     3     4   ar
     4     4     5   ar
     5     5     6   ar
     6     6     7    1
     7     7     8   ar
     8     8     9   ar
     9     9    10   ar
    10    10    11   ar
    11    11    12   ar
    12     6     2   ar
    13    12     7   ar
@<TRIPOS>MOLECULE
*****
 12 13 0 0 0
SMALL
GASTEIGER

@<TRIPOS>ATOM
      1 C          63.8008   91.3679   11.2846 C.3     1  UNL1        0.0722
      2 C          64.5946   91.6730   12.5202 C.ar    1  UNL1        0.1247
      3 N          64.2790   91.2030   13.9093 N.ar    1  UNL1       -0.2290
      4 C          65.3327   91.7412   14.8314 C.ar    1  UNL1        0.1192
      5 C          66.2995   92.5438   14.0121 C.ar    1  UNL1        0.1019
      6 N          65.8433   92.5016   12.5838 N.ar    1  UNL1       -0.2907
      7 C          66.5175   93.1707   11.4228 C.ar    1  UNL1        0.0843
      8 C          67.3621   92.3655   10.4802 C.ar    1  UNL1        0.0207
      9 C          68.0363   93.0346    9.3193 C.ar    1  UNL1        0.0222
     10 C          67.8659   94.5088    9.1009 C.ar    1  UNL1        0.0990
     11 N          67.0213   95.3139   10.0434 N.ar    1  UNL1       -0.2408
     12 C          66.3471   94.6449   11.2044 C.ar    1  UNL1        0.1163
@<TRIPOS>BOND
     1     1     2    1
     2     2     3   ar
     3     3     4   ar
     4     4     5   ar
     5     5     6   ar
     6     6     7    1
     7     7     8   ar
     8     8     9   ar
     9     9    10   ar
    10    10    11   ar
    11    11    12   ar
    12     6     2   ar
    13    12     7   ar
@<TRIPOS>MOLECULE
*****
 12 13 0 0 0
SMALL
GASTEIGER

@<TRIPOS>ATOM
      1 C          64.2331   82.5880   10.9507 C.3     1  UNL1        0.0722
      2 C          63.3993   82.0859   12.0920 C.ar    1  UNL1        0.1247
      3 N          62.7883   80.7205   12.2035 N.ar    1  UNL1       -0.2290
      4 C          62.0414   80.6516   13.5026 C.ar    1  UNL1        0.1192
      5 C          62.1910   81.9744   14.1939 C.ar    1  UNL1        0.1019
      6 N          63.0302   82.8608   13.3221 N.ar    1  UNL1       -0.2907
      7 C          63.4301   84.2740   13.6270 C.ar    1  UNL1        0.0843
      8 C          64.2720   84.5719   14.8321 C.ar    1  UNL1        0.0207
      9 C          64.6719   85.9851   15.1369 C.ar    1  UNL1        0.0222
     10 C          64.2298   87.1004   14.2366 C.ar    1  UNL1        0.0990
     11 N          63.3878   86.8026   13.0315 N.ar    1  UNL1       -0.2408
     12 C          62.9880   85.3894   12.7267 C.ar    1  UNL1        0.1163
@<TRIPOS>BOND
     1     1     2    1
     2     2     3   ar
     3     3     4   ar
     4     4     5   ar
     5     5     6   ar
     6     6     7    1
     7     7     8   ar
     8     8     9   ar
     9     9    10   ar
    10    10    11   ar
    11    11    12   ar
    12     6     2   ar
    13    12     7   ar
@<TRIPOS>MOLECULE
*****
 12 13 0 0 0
SMALL
GASTEIGER

@<TRIPOS>ATOM
      1 C          62.5163   81.5423   12.1322 C.3     1  UNL1        0.0722
      2 C          63.0561   82.6147   13.0314 C.ar    1  UNL1        0.1247
      3 N          63.5613   82.4205   14.4303 N.ar    1  UNL1       -0.2290
      4 C          64.0030   83.7553   14.9531 C.ar    1  UNL1        0.1192
      5 C          63.7707   84.7744   13.8772 C.ar    1  UNL1        0.1019
      6 N          63.1855   84.0695   12.6895 N.ar    1  UNL1       -0.2907
      7 C          62.7978   84.7074   11.3884 C.ar    1  UNL1        0.0843
      8 C          63.4943   84.3093   10.1210 C.ar    1  UNL1        0.0207
      9 C          63.1066   84.9472    8.8200 C.ar    1  UNL1        0.0222
     10 C          62.0223   85.9832    8.7864 C.ar    1  UNL1        0.0990
     11 N          61.3258   86.3813   10.0538 N.ar    1  UNL1       -0.2408
     12 C          61.7136   85.7434   11.3548 C.ar    1  UNL1        0.1163
@<TRIPOS>BOND
     1     1     2    1
     2     2     3   ar
     3     3     4   ar
     4     4     5   ar
     5     5     6   ar
     6     6     7    1
     7     7     8   ar
     8     8     9   ar
     9     9    10   ar
    10    10    11   ar
    11    11    12   ar
    12     6     2   ar
    13    12     7   ar
@<TRIPOS>MOLECULE
*****
 12 13 0 0 0
SMALL
GASTEIGER

@<TRIPOS>ATOM
      1 C          64.4056   91.9861   10.8556 C.3     1  UNL1        0.0722
      2 C          65.1278   92.4161   12.0980 C.ar    1  UNL1        0.1247
      3 N          65.0151   91.7755   13.4496 N.ar    1  UNL1       -0.2290
      4 C          65.9070   92.5257   14.3940 C.ar    1  UNL1        0.1192
      5 C          66.5709   93.6299   13.6259 C.ar    1  UNL1        0.1019
      6 N          66.0893   93.5622   12.2069 N.ar    1  UNL1       -0.2907
      7 C          66.4976   94.4796   11.0925 C.ar    1  UNL1        0.0843
      8 C          66.1563   95.9387   11.1590 C.ar    1  UNL1        0.0207
      9 C          66.5646   96.8559   10.0447 C.ar    1  UNL1        0.0222
     10 C          67.3142   96.3141    8.8638 C.ar    1  UNL1        0.0990
     11 N          67.6555   94.8550    8.7972 N.ar    1  UNL1       -0.2408
     12 C          67.2472   93.9377    9.9116 C.ar    1  UNL1        0.1163
@<TRIPOS>BOND
     1     1     2    1
     2     2     3   ar
     3     3     4   ar
     4     4     5   ar
     5     5     6   ar
     6     6     7    1
     7     7     8   ar
     8     8     9   ar
     9     9    10   ar
    10    10    11   ar
    11    11    12   ar
    12     6     2   ar
    13    12     7   ar
@<TRIPOS>MOLECULE
*****
 12 13 0 0 0
SMALL
GASTEIGER

@<TRIPOS>ATOM
      1 C          65.1944   92.7417   11.2197 C.3     1  UNL1        0.0722
      2 C          64.6008   91.7008   12.1220 C.ar    1  UNL1        0.1247
      3 N          63.3820   90.8753   11.8335 N.ar    1  UNL1       -0.2290
      4 C          63.1496   89.9669   13.0044 C.ar    1  UNL1        0.1192
      5 C          64.2247   90.2311   14.0165 C.ar    1  UNL1        0.1019
      6 N          65.1216   91.3027   13.4711 N.ar    1  UNL1       -0.2907
      7 C          66.3275   91.8755   14.1550 C.ar    1  UNL1        0.0843
      8 C          66.2075   92.4391   15.5399 C.ar    1  UNL1        0.0207
      9 C          67.4134   93.0119   16.2236 C.ar    1  UNL1        0.0222
     10 C          68.7394   93.0212   15.5225 C.ar    1  UNL1        0.0990
     11 N          68.8595   92.4576   14.1376 N.ar    1  UNL1       -0.2408
     12 C          67.6536   91.8848   13.4538 C.ar    1  UNL1        0.1163
@<TRIPOS>BOND
     1     1     2    1
     2     2     3   ar
     3     3     4   ar
     4     4     5   ar
     5     5     6   ar
     6     6     7    1
     7     7     8   ar
     8     8     9   ar
     9     9    10   ar
    10    10    11   ar
    11    11    12   ar
    12     6     2   ar
    13    12     7   ar
@<TRIPOS>MOLECULE
*****
 12 13 0 0 0
SMALL
GASTEIGER

@<TRIPOS>ATOM
      1 C          66.3230   91.5561   14.9323 C.3     1  UNL1        0.0722
      2 C          65.3928   91.3885   13.7675 C.ar    1  UNL1        0.1247
      3 N          65.3803   92.2240   12.5219 N.ar    1  UNL1       -0.2290
      4 C          64.2916   91.7078   11.6283 C.ar    1  UNL1        0.1192
      5 C          63.6314   90.5532   12.3218 C.ar    1  UNL1        0.1019
      6 N          64.3119   90.3559   13.6439 N.ar    1  UNL1       -0.2907
      7 C          63.9713   89.3095   14.6633 C.ar    1  UNL1        0.0843
      8 C          63.4115   89.7139   15.9949 C.ar    1  UNL1        0.0207
      9 C          63.0710   88.6676   17.0143 C.ar    1  UNL1        0.0222
     10 C          63.2902   87.2169   16.7021 C.ar    1  UNL1        0.0990
     11 N          63.8501   86.8125   15.3706 N.ar    1  UNL1       -0.2408
     12 C          64.1906   87.8588   14.3512 C.ar    1  UNL1        0.1163
@<TRIPOS>BOND
     1     1     2    1
     2     2     3   ar
     3     3     4   ar
     4     4     5   ar
     5     5     6   ar
     6     6     7    1
     7     7     8   ar
     8     8     9   ar
     9     9    10   ar
    10    10    11   ar
    11    11    12   ar
    12     6     2   ar
    13    12     7   ar
@<TRIPOS>MOLECULE
*****
 12 13 0 0 0
SMALL
GASTEIGER

@<TRIPOS>ATOM
      1 C          59.1622   86.7939    7.7101 C.3     1  UNL1        0.0722
      2 C          60.5435   86.2268    7.8528 C.ar    1  UNL1        0.1247
      3 N          61.1331   85.1229    7.0259 N.ar    1  UNL1       -0.2290
      4 C          62.5318   84.8778    7.5095 C.ar    1  UNL1        0.1192
      5 C          62.8065   85.8302    8.6353 C.ar    1  UNL1        0.1019
      6 N          61.5777   86.6639    8.8475 N.ar    1  UNL1       -0.2907
      7 C          61.4122   87.7450    9.8741 C.ar    1  UNL1        0.0843
      8 C          62.3306   88.9309    9.8692 C.ar    1  UNL1        0.0207
      9 C          62.1650   90.0119   10.8959 C.ar    1  UNL1        0.0222
     10 C          61.0811   89.9069   11.9274 C.ar    1  UNL1        0.0990
     11 N          60.1627   88.7210   11.9323 N.ar    1  UNL1       -0.2408
     12 C          60.3283   87.6400   10.9057 C.ar    1  UNL1        0.1163
@<TRIPOS>BOND
     1     1     2    1
     2     2     3   ar
     3     3     4   ar
     4     4     5   ar
     5     5     6   ar
     6     6     7    1
     7     7     8   ar
     8     8     9   ar
     9     9    10   ar
    10    10    11   ar
    11    11    12   ar
    12     6     2   ar
    13    12     7   ar
@<TRIPOS>MOLECULE
*****
 12 13 0 0 0
SMALL
GASTEIGER

@<TRIPOS>ATOM
      1 C          64.5575   91.9895   11.0271 C.3     1  UNL1        0.0722
      2 C          64.2215   91.4077   12.3681 C.ar    1  UNL1        0.1247
      3 N          64.8714   91.7647   13.6720 N.ar    1  UNL1       -0.2290
      4 C          64.2281   90.9444   14.7506 C.ar    1  UNL1        0.1192
      5 C          63.1807   90.0803   14.1132 C.ar    1  UNL1        0.1019
      6 N          63.1766   90.3666   12.6408 N.ar    1  UNL1       -0.2907
      7 C          62.2842   89.7246   11.6202 C.ar    1  UNL1        0.0843
      8 C          62.5520   88.3199   11.1674 C.ar    1  UNL1        0.0207
      9 C          61.6596   87.6779   10.1469 C.ar    1  UNL1        0.0222
     10 C          60.4995   88.4406    9.5792 C.ar    1  UNL1        0.0990
     11 N          60.2317   89.8453   10.0320 N.ar    1  UNL1       -0.2408
     12 C          61.1241   90.4873   11.0525 C.ar    1  UNL1        0.1163
@<TRIPOS>BOND
     1     1     2    1
     2     2     3   ar
     3     3     4   ar
     4     4     5   ar
     5     5     6   ar
     6     6     7    1
     7     7     8   ar
     8     8     9   ar
     9     9    10   ar
    10    10    11   ar
    11    11    12   ar
    12     6     2   ar
    13    12     7   ar
