@<TRIPOS>MOLECULE
*****
 46 51 0 0 0
SMALL
GASTEIGER

@<TRIPOS>ATOM
      1 C          59.7629   90.1210    6.3043 C.2     1  UNL1        0.0332
      2 C          58.2820   90.3219    6.1759 C.2     1  UNL1        0.0101
      3 C          57.7333   91.1673    5.0649 C.2     1  UNL1        0.0255
      4 C          56.2524   91.3682    4.9366 C.3     1  UNL1        0.0351
      5 C          58.6656   91.8118    4.0824 C.2     1  UNL1        0.2278
      6 N          58.4186   92.6920    2.8931 N.2     1  UNL1       -0.0345
      7 C          59.7469   93.0350    2.2866 C.2     1  UNL1        0.3649
      8 N          60.8149   92.3669    3.1009 N.2     1  UNL1       -0.0380
      9 C          60.1466   91.6109    4.2108 C.2     1  UNL1        0.2184
     10 C          60.6952   90.7655    5.3218 C.3     1  UNL1        0.1186
     11 C          59.9685   93.8952    1.0779 C.3     1  UNL1        0.2250
     12 C          59.4446   93.4601   -0.2586 C.2     1  UNL1        0.0436
     13 C          59.6661   94.3204   -1.4673 C.2     1  UNL1        0.0288
     14 C          60.4116   95.6157   -1.3395 C.2     1  UNL1        0.0896
     15 N          60.9354   96.0509   -0.0031 N.am    1  UNL1       -0.1770
     16 C          60.7139   95.1906    1.2056 C.2     1  UNL1        0.2627
     17 O          61.2377   95.6258    2.5421 O.2     1  UNL1       -0.2719
     18 N          58.6992   92.1647   -0.3864 N.pl3   1  UNL1       -0.3329
     19 H          59.1472   91.3155   -0.1692 H       1  UNL1        0.1466
     20 C          57.2711   92.1633   -0.8452 C.3     1  UNL1        0.1211
     21 C          56.9502   92.3465   -2.2990 C.3     1  UNL1        0.1522
     22 O          57.4794   91.3751   -3.3121 O.3     1  UNL1       -0.3783
     23 H          58.0057   90.6948   -2.8636 H       1  UNL1        0.2109
     24 C          56.1001   93.5011   -2.7397 C.ar    1  UNL1        0.0067
     25 C          56.1460   93.9652   -4.1653 C.ar    1  UNL1       -0.0018
     26 C          55.2959   95.1198   -4.6060 C.ar    1  UNL1        0.0006
     27 C          54.3998   95.8103   -3.6210 C.ar    1  UNL1        0.0114
     28 C          54.3538   95.3462   -2.1954 C.ar    1  UNL1        0.0574
     29 CL         53.4577   96.0367   -1.2105 Cl      1  UNL1       -0.0823
     30 C          55.2039   94.1916   -1.7547 C.ar    1  UNL1        0.0095
     31 C          61.4090   87.5848    9.6373 C.3     1  UNL1        0.0610
     32 C          60.6874   86.9406    8.4909 C.3     1  UNL1        0.0374
     33 C          60.1387   87.7860    7.3799 C.3     1  UNL1        0.0919
     34 N          60.3116   89.2755    7.4153 N.pl3   1  UNL1       -0.3103
     35 C          61.0332   89.9198    8.5617 C.3     1  UNL1        0.0919
     36 C          61.5819   89.0744    9.6727 C.3     1  UNL1        0.0374
     37 C          63.6039   84.2035   14.0813 C.2     1  UNL1        0.4051
     38 O          64.2891   84.8508   15.2479 O.2     1  UNL1       -0.2262
     39 N          63.0551   85.0488   12.9702 N.am    1  UNL1       -0.2432
     40 C          62.3699   84.4014   11.8035 C.3     1  UNL1        0.1141
     41 C          61.8211   85.2468   10.6925 C.3     1  UNL1        0.0940
     42 N          61.9577   86.7395   10.7482 N.3     1  UNL1       -0.2710
     43 C          62.6430   87.3869   11.9150 C.3     1  UNL1        0.0940
     44 C          63.1917   86.5415   13.0260 C.3     1  UNL1        0.1141
     45 C          62.1950   82.0567   14.4766 C.3     1  UNL1        0.2573
     46 O          63.4673   82.7107   14.0255 O.3     1  UNL1       -0.4304
@<TRIPOS>BOND
     1    45    46    1
     2    46    37    1
     3    37    38    2
     4    37    39   am
     5    39    40    1
     6    40    41    1
     7    41    42    1
     8    42    31    1
     9    31    32    1
    10    32    33    1
    11    33    34    1
    12    34     1    1
    13     1     2    2
    14     2     3    1
    15     3     4    1
    16     3     5    2
    17     5     6    1
    18     6     7    2
    19     7    11    1
    20    11    12    1
    21    12    18    1
    22    18    20    1
    23    20    21    1
    24    21    22    1
    25    21    24    1
    26    24    25   ar
    27    25    26   ar
    28    26    27   ar
    29    27    28   ar
    30    28    29    1
    31    28    30   ar
    32    12    13    2
    33    13    14    1
    34    14    15    2
    35    15    16    1
    36    16    17    2
    37     7     8    1
    38     8     9    2
    39     9    10    1
    40    34    35    1
    41    35    36    1
    42    42    43    1
    43    43    44    1
    44    44    39    1
    45    36    31    1
    46    10     1    1
    47     9     5    1
    48    16    11    1
    49    30    24   ar
    50    18    19    1
    51    22    23    1
@<TRIPOS>MOLECULE
*****
 46 51 0 0 0
SMALL
GASTEIGER

@<TRIPOS>ATOM
      1 C          59.7893   90.0983    6.3589 C.2     1  UNL1        0.0332
      2 C          58.3085   90.3056    6.2402 C.2     1  UNL1        0.0101
      3 C          57.7559   91.1501    5.1305 C.2     1  UNL1        0.0255
      4 C          56.2750   91.3574    5.0118 C.3     1  UNL1        0.0351
      5 C          58.6843   91.7873    4.1395 C.2     1  UNL1        0.2278
      6 N          58.4330   92.6649    2.9493 N.2     1  UNL1       -0.0345
      7 C          59.7586   93.0000    2.3324 C.2     1  UNL1        0.3649
      8 N          60.8291   92.3295    3.1413 N.2     1  UNL1       -0.0380
      9 C          60.1652   91.5799    4.2582 C.2     1  UNL1        0.2184
     10 C          60.7177   90.7354    5.3679 C.3     1  UNL1        0.1186
     11 C          59.9756   93.8555    1.1195 C.3     1  UNL1        0.2250
     12 C          61.1895   94.7317    1.0272 C.2     1  UNL1        0.0436
     13 C          61.4065   95.5872   -0.1858 C.2     1  UNL1        0.0288
     14 C          60.4096   95.5664   -1.3064 C.2     1  UNL1        0.0896
     15 N          59.1956   94.6901   -1.2140 N.am    1  UNL1       -0.1770
     16 C          58.9787   93.8347   -0.0011 C.2     1  UNL1        0.2627
     17 O          57.7647   92.9584    0.0913 O.2     1  UNL1       -0.2719
     18 N          62.1865   94.7526    2.1477 N.pl3   1  UNL1       -0.3329
     19 H          61.8956   94.5631    3.0689 H       1  UNL1        0.1466
     20 C          63.6267   95.0621    1.8646 C.3     1  UNL1        0.1211
     21 C          64.4188   94.1748    0.9507 C.3     1  UNL1        0.1522
     22 O          65.1531   92.9905    1.5059 O.3     1  UNL1       -0.3783
     23 H          65.0121   92.9429    2.4644 H       1  UNL1        0.2109
     24 C          64.4767   94.4719   -0.5185 C.ar    1  UNL1        0.0067
     25 C          65.1182   95.7384   -1.0029 C.ar    1  UNL1       -0.0018
     26 C          65.1761   96.0355   -2.4720 C.ar    1  UNL1        0.0006
     27 C          64.5925   95.0661   -3.4568 C.ar    1  UNL1        0.0114
     28 C          63.9511   93.7997   -2.9724 C.ar    1  UNL1        0.0574
     29 CL         63.3676   92.8303   -3.9572 Cl      1  UNL1       -0.0823
     30 C          63.8932   93.5026   -1.5033 C.ar    1  UNL1        0.0095
     31 C          61.4470   87.5646    9.6881 C.3     1  UNL1        0.0610
     32 C          61.6285   89.0533    9.7169 C.3     1  UNL1        0.0374
     33 C          61.0759   89.8978    8.6071 C.3     1  UNL1        0.0919
     34 N          60.3419   89.2537    7.4687 N.pl3   1  UNL1       -0.3103
     35 C          60.1603   87.7650    7.4399 C.3     1  UNL1        0.0919
     36 C          60.7129   86.9205    8.5495 C.3     1  UNL1        0.0374
     37 C          63.6572   84.1864   14.1269 C.2     1  UNL1        0.4051
     38 O          64.3618   84.8334   15.2821 O.2     1  UNL1       -0.2262
     39 N          63.1046   85.0309   13.0171 N.am    1  UNL1       -0.2432
     40 C          62.3999   84.3840   11.8619 C.3     1  UNL1        0.1141
     41 C          61.8473   85.2285   10.7521 C.3     1  UNL1        0.0940
     42 N          61.9995   86.7201   10.7977 N.3     1  UNL1       -0.2710
     43 C          62.7042   87.3671   11.9531 C.3     1  UNL1        0.0940
     44 C          63.2567   86.5225   13.0628 C.3     1  UNL1        0.1141
     45 C          62.1861   82.0649   14.4182 C.3     1  UNL1        0.2573
     46 O          63.5050   82.6949   14.0812 O.3     1  UNL1       -0.4304
@<TRIPOS>BOND
     1    45    46    1
     2    46    37    1
     3    37    38    2
     4    37    39   am
     5    39    40    1
     6    40    41    1
     7    41    42    1
     8    42    31    1
     9    31    32    1
    10    32    33    1
    11    33    34    1
    12    34     1    1
    13     1     2    2
    14     2     3    1
    15     3     4    1
    16     3     5    2
    17     5     6    1
    18     6     7    2
    19     7    11    1
    20    11    12    1
    21    12    18    1
    22    18    20    1
    23    20    21    1
    24    21    22    1
    25    21    24    1
    26    24    25   ar
    27    25    26   ar
    28    26    27   ar
    29    27    28   ar
    30    28    29    1
    31    28    30   ar
    32    12    13    2
    33    13    14    1
    34    14    15    2
    35    15    16    1
    36    16    17    2
    37     7     8    1
    38     8     9    2
    39     9    10    1
    40    34    35    1
    41    35    36    1
    42    42    43    1
    43    43    44    1
    44    44    39    1
    45    36    31    1
    46    10     1    1
    47     9     5    1
    48    16    11    1
    49    30    24   ar
    50    18    19    1
    51    22    23    1
@<TRIPOS>MOLECULE
*****
 46 51 0 0 0
SMALL
GASTEIGER

@<TRIPOS>ATOM
      1 C          59.7960   90.1636    6.3291 C.2     1  UNL1        0.0332
      2 C          58.3141   90.3468    6.1870 C.2     1  UNL1        0.0101
      3 C          57.7647   91.1692    5.0592 C.2     1  UNL1        0.0255
      4 C          56.2827   91.3524    4.9171 C.3     1  UNL1        0.0351
      5 C          58.6974   91.8083    4.0734 C.2     1  UNL1        0.2278
      6 N          58.4499   92.6674    2.8690 N.2     1  UNL1       -0.0345
      7 C          59.7789   93.0151    2.2667 C.2     1  UNL1        0.3649
      8 N          60.8478   92.3709    3.0989 N.2     1  UNL1       -0.0380
      9 C          60.1794   91.6251    4.2155 C.2     1  UNL1        0.2184
     10 C          60.7287   90.8027    5.3434 C.3     1  UNL1        0.1186
     11 C          60.0003   93.8589    1.0464 C.3     1  UNL1        0.2250
     12 C          59.4248   93.4357   -0.2725 C.2     1  UNL1        0.0436
     13 C          59.6462   94.2795   -1.4928 C.2     1  UNL1        0.0288
     14 C          60.4430   95.5465   -1.3941 C.2     1  UNL1        0.0896
     15 N          61.0185   95.9697   -0.0751 N.am    1  UNL1       -0.1770
     16 C          60.7971   95.1259    1.1451 C.2     1  UNL1        0.2627
     17 O          61.3726   95.5491    2.4641 O.2     1  UNL1       -0.2719
     18 N          58.6279   92.1687   -0.3713 N.pl3   1  UNL1       -0.3329
     19 H          59.0352   91.3098   -0.1149 H       1  UNL1        0.1466
     20 C          57.2107   92.2103   -0.8608 C.3     1  UNL1        0.1211
     21 C          56.9268   92.4039   -2.3209 C.3     1  UNL1        0.1522
     22 O          57.5025   91.4543   -3.3292 O.3     1  UNL1       -0.3783
     23 H          58.0291   90.7790   -2.8736 H       1  UNL1        0.2109
     24 C          56.0673   93.5472   -2.7726 C.ar    1  UNL1        0.0067
     25 C          55.1435   94.2205   -1.8015 C.ar    1  UNL1       -0.0018
     26 C          54.2840   95.3638   -2.2532 C.ar    1  UNL1        0.0006
     27 C          54.3483   95.8338   -3.6762 C.ar    1  UNL1        0.0114
     28 C          55.2721   95.1606   -4.6474 C.ar    1  UNL1        0.0574
     29 CL         55.3364   95.6306   -6.0704 Cl      1  UNL1       -0.0823
     30 C          56.1316   94.0173   -4.1956 C.ar    1  UNL1        0.0095
     31 C          61.4442   87.6967    9.7126 C.3     1  UNL1        0.0610
     32 C          60.7087   87.0305    8.5877 C.3     1  UNL1        0.0374
     33 C          60.1593   87.8529    7.4599 C.3     1  UNL1        0.0919
     34 N          60.3454   89.3412    7.4569 N.pl3   1  UNL1       -0.3103
     35 C          61.0809   90.0074    8.5818 C.3     1  UNL1        0.0919
     36 C          61.6303   89.1851    9.7096 C.3     1  UNL1        0.0374
     37 C          63.6418   84.4075   14.2239 C.2     1  UNL1        0.4051
     38 O          63.4420   82.9210   14.2349 O.2     1  UNL1       -0.2262
     39 N          63.0924   85.2298   13.0961 N.am    1  UNL1       -0.2432
     40 C          63.2922   86.7163   13.0851 C.3     1  UNL1        0.1141
     41 C          62.7428   87.5387   11.9573 C.3     1  UNL1        0.0940
     42 N          61.9936   86.8744   10.8404 N.3     1  UNL1       -0.2710
     43 C          61.7938   85.3878   10.8514 C.3     1  UNL1        0.0940
     44 C          62.3432   84.5655   11.9792 C.3     1  UNL1        0.1141
     45 C          63.6410   85.6922   16.4821 C.3     1  UNL1        0.2573
     46 O          64.3910   85.0718   15.3408 O.3     1  UNL1       -0.4304
@<TRIPOS>BOND
     1    45    46    1
     2    46    37    1
     3    37    38    2
     4    37    39   am
     5    39    40    1
     6    40    41    1
     7    41    42    1
     8    42    31    1
     9    31    32    1
    10    32    33    1
    11    33    34    1
    12    34     1    1
    13     1     2    2
    14     2     3    1
    15     3     4    1
    16     3     5    2
    17     5     6    1
    18     6     7    2
    19     7    11    1
    20    11    12    1
    21    12    18    1
    22    18    20    1
    23    20    21    1
    24    21    22    1
    25    21    24    1
    26    24    25   ar
    27    25    26   ar
    28    26    27   ar
    29    27    28   ar
    30    28    29    1
    31    28    30   ar
    32    12    13    2
    33    13    14    1
    34    14    15    2
    35    15    16    1
    36    16    17    2
    37     7     8    1
    38     8     9    2
    39     9    10    1
    40    34    35    1
    41    35    36    1
    42    42    43    1
    43    43    44    1
    44    44    39    1
    45    36    31    1
    46    10     1    1
    47     9     5    1
    48    16    11    1
    49    30    24   ar
    50    18    19    1
    51    22    23    1
@<TRIPOS>MOLECULE
*****
 46 51 0 0 0
SMALL
GASTEIGER

@<TRIPOS>ATOM
      1 C          59.8403   89.6885    6.6125 C.2     1  UNL1        0.0332
      2 C          58.3689   89.8785    6.3920 C.2     1  UNL1        0.0101
      3 C          57.8846   90.8725    5.3783 C.2     1  UNL1        0.0255
      4 C          56.4131   91.0625    5.1578 C.3     1  UNL1        0.0351
      5 C          58.8718   91.6764    4.5852 C.2     1  UNL1        0.2278
      6 N          58.6933   92.7223    3.5249 N.2     1  UNL1       -0.0345
      7 C          60.0544   93.1787    3.0902 C.2     1  UNL1        0.3649
      8 N          61.0742   92.4149    3.8818 N.2     1  UNL1       -0.0380
      9 C          60.3433   91.4864    4.8058 C.2     1  UNL1        0.2184
     10 C          60.8275   90.4924    5.8194 C.3     1  UNL1        0.1186
     11 C          60.3449   94.2167    2.0470 C.3     1  UNL1        0.2250
     12 C          60.9381   93.8113    0.7304 C.2     1  UNL1        0.0436
     13 C          61.2285   94.8494   -0.3128 C.2     1  UNL1        0.0288
     14 C          60.9257   96.2928   -0.0393 C.2     1  UNL1        0.0896
     15 N          60.3325   96.6982    1.2774 N.am    1  UNL1       -0.1770
     16 C          60.0421   95.6601    2.3206 C.2     1  UNL1        0.2627
     17 O          59.4488   96.0655    3.6373 O.2     1  UNL1       -0.2719
     18 N          61.2410   92.3679    0.4567 N.pl3   1  UNL1       -0.3329
     19 H          60.5332   91.7715    0.1214 H       1  UNL1        0.1466
     20 C          62.6222   91.8333    0.6941 C.3     1  UNL1        0.1211
     21 C          63.5521   92.5469    1.6300 C.3     1  UNL1        0.1522
     22 O          63.8899   91.9397    2.9593 O.3     1  UNL1       -0.3783
     23 H          63.4270   91.0927    3.0549 H       1  UNL1        0.2109
     24 C          64.1442   93.8678    1.2366 C.ar    1  UNL1        0.0067
     25 C          64.4592   94.8912    2.2869 C.ar    1  UNL1       -0.0018
     26 C          65.0512   96.2121    1.8935 C.ar    1  UNL1        0.0006
     27 C          65.3283   96.5095    0.4496 C.ar    1  UNL1        0.0114
     28 C          65.0133   95.4861   -0.6007 C.ar    1  UNL1        0.0574
     29 CL         65.2904   95.7835   -2.0446 Cl      1  UNL1       -0.0823
     30 C          64.4213   94.1652   -0.2073 C.ar    1  UNL1        0.0095
     31 C          61.2932   86.7068    9.6537 C.3     1  UNL1        0.0610
     32 C          60.6318   86.2316    8.3940 C.3     1  UNL1        0.0374
     33 C          60.1475   87.2256    7.3803 C.3     1  UNL1        0.0919
     34 N          60.3246   88.6945    7.6263 N.pl3   1  UNL1       -0.3103
     35 C          60.9860   89.1697    8.8859 C.3     1  UNL1        0.0919
     36 C          61.4703   88.1758    9.8996 C.3     1  UNL1        0.0374
     37 C          63.2304   82.7312   13.7086 C.2     1  UNL1        0.4051
     38 O          63.2983   83.1108   15.1581 O.2     1  UNL1       -0.2262
     39 N          62.7461   83.7251   12.6948 N.am    1  UNL1       -0.2432
     40 C          62.6782   83.3454   11.2453 C.3     1  UNL1        0.1141
     41 C          62.1939   84.3393   10.2315 C.3     1  UNL1        0.0940
     42 N          61.7775   85.7129   10.6674 N.3     1  UNL1       -0.2710
     43 C          61.8454   86.0925   12.1170 C.3     1  UNL1        0.0940
     44 C          62.3297   85.0986   13.1307 C.3     1  UNL1        0.1141
     45 C          62.6248   80.2661   13.1553 C.3     1  UNL1        0.2573
     46 O          63.6468   81.3577   13.2727 O.3     1  UNL1       -0.4304
@<TRIPOS>BOND
     1    45    46    1
     2    46    37    1
     3    37    38    2
     4    37    39   am
     5    39    40    1
     6    40    41    1
     7    41    42    1
     8    42    31    1
     9    31    32    1
    10    32    33    1
    11    33    34    1
    12    34     1    1
    13     1     2    2
    14     2     3    1
    15     3     4    1
    16     3     5    2
    17     5     6    1
    18     6     7    2
    19     7    11    1
    20    11    12    1
    21    12    18    1
    22    18    20    1
    23    20    21    1
    24    21    22    1
    25    21    24    1
    26    24    25   ar
    27    25    26   ar
    28    26    27   ar
    29    27    28   ar
    30    28    29    1
    31    28    30   ar
    32    12    13    2
    33    13    14    1
    34    14    15    2
    35    15    16    1
    36    16    17    2
    37     7     8    1
    38     8     9    2
    39     9    10    1
    40    34    35    1
    41    35    36    1
    42    42    43    1
    43    43    44    1
    44    44    39    1
    45    36    31    1
    46    10     1    1
    47     9     5    1
    48    16    11    1
    49    30    24   ar
    50    18    19    1
    51    22    23    1
@<TRIPOS>MOLECULE
*****
 46 51 0 0 0
SMALL
GASTEIGER

@<TRIPOS>ATOM
      1 C          58.3783   95.7423   -4.6510 C.2     1  UNL1        0.0332
      2 C          59.2336   95.1056   -5.7059 C.2     1  UNL1        0.0101
      3 C          60.7112   94.9646   -5.4893 C.2     1  UNL1        0.0255
      4 C          61.5665   94.3278   -6.5444 C.3     1  UNL1        0.0351
      5 C          61.3335   95.4605   -4.2178 C.2     1  UNL1        0.2278
      6 N          62.7508   95.4586   -3.7267 N.2     1  UNL1       -0.0345
      7 C          62.7714   96.0942   -2.3682 C.2     1  UNL1        0.3649
      8 N          61.3669   96.4889   -2.0197 N.2     1  UNL1       -0.0380
      9 C          60.4782   96.0973   -3.1628 C.2     1  UNL1        0.2184
     10 C          59.0006   96.2382   -3.3794 C.3     1  UNL1        0.1186
     11 C          63.9838   96.2992   -1.5090 C.3     1  UNL1        0.2250
     12 C          63.8809   96.1531   -0.0197 C.2     1  UNL1        0.0436
     13 C          65.0934   96.3580    0.8395 C.2     1  UNL1        0.0288
     14 C          66.4085   96.7091    0.2094 C.2     1  UNL1        0.0896
     15 N          66.5114   96.8552   -1.2799 N.am    1  UNL1       -0.1770
     16 C          65.2989   96.6502   -2.1391 C.2     1  UNL1        0.2627
     17 O          65.4018   96.7963   -3.6284 O.2     1  UNL1       -0.2719
     18 N          62.5658   95.8020    0.6105 N.pl3   1  UNL1       -0.3329
     19 H          61.9474   96.5156    0.8890 H       1  UNL1        0.1466
     20 C          62.1929   94.3638    0.8164 C.3     1  UNL1        0.1211
     21 C          60.8693   94.0124    1.4284 C.3     1  UNL1        0.1522
     22 O          59.6130   94.6537    0.9178 O.3     1  UNL1       -0.3783
     23 H          59.8319   95.2651    0.1972 H       1  UNL1        0.2109
     24 C          60.8018   93.0198    2.5509 C.ar    1  UNL1        0.0067
     25 C          62.0216   92.2344    2.9320 C.ar    1  UNL1       -0.0018
     26 C          61.9542   91.2418    4.0545 C.ar    1  UNL1        0.0006
     27 C          60.6669   91.0345    4.7960 C.ar    1  UNL1        0.0114
     28 C          59.4471   91.8198    4.4149 C.ar    1  UNL1        0.0574
     29 CL         58.1597   91.6124    5.1565 Cl      1  UNL1       -0.0823
     30 C          59.5145   92.8124    3.2924 C.ar    1  UNL1        0.0095
     31 C          53.9455   96.1651   -5.3004 C.3     1  UNL1        0.0610
     32 C          54.8807   96.1861   -6.4731 C.3     1  UNL1        0.0374
     33 C          56.3583   96.0451   -6.2565 C.3     1  UNL1        0.0919
     34 N          56.9007   95.8832   -4.8675 N.pl3   1  UNL1       -0.3103
     35 C          55.9656   95.8623   -3.6949 C.3     1  UNL1        0.0919
     36 C          54.4880   96.0032   -3.9114 C.3     1  UNL1        0.0374
     37 C          48.0351   96.7288   -6.1664 C.2     1  UNL1        0.4051
     38 O          47.4792   96.7429   -7.5594 O.2     1  UNL1       -0.2262
     39 N          49.5128   96.5879   -5.9499 N.am    1  UNL1       -0.2432
     40 C          50.0687   96.5738   -4.5568 C.3     1  UNL1        0.1141
     41 C          51.5463   96.4329   -4.3403 C.3     1  UNL1        0.0940
     42 N          52.4679   96.3060   -5.5169 N.3     1  UNL1       -0.2710
     43 C          51.9120   96.3201   -6.9100 C.3     1  UNL1        0.0940
     44 C          50.4344   96.4610   -7.1265 C.3     1  UNL1        0.1141
     45 C          45.6332   96.7016   -5.1766 C.3     1  UNL1        0.2573
     46 O          47.1135   96.8557   -4.9898 O.3     1  UNL1       -0.4304
@<TRIPOS>BOND
     1    45    46    1
     2    46    37    1
     3    37    38    2
     4    37    39   am
     5    39    40    1
     6    40    41    1
     7    41    42    1
     8    42    31    1
     9    31    32    1
    10    32    33    1
    11    33    34    1
    12    34     1    1
    13     1     2    2
    14     2     3    1
    15     3     4    1
    16     3     5    2
    17     5     6    1
    18     6     7    2
    19     7    11    1
    20    11    12    1
    21    12    18    1
    22    18    20    1
    23    20    21    1
    24    21    22    1
    25    21    24    1
    26    24    25   ar
    27    25    26   ar
    28    26    27   ar
    29    27    28   ar
    30    28    29    1
    31    28    30   ar
    32    12    13    2
    33    13    14    1
    34    14    15    2
    35    15    16    1
    36    16    17    2
    37     7     8    1
    38     8     9    2
    39     9    10    1
    40    34    35    1
    41    35    36    1
    42    42    43    1
    43    43    44    1
    44    44    39    1
    45    36    31    1
    46    10     1    1
    47     9     5    1
    48    16    11    1
    49    30    24   ar
    50    18    19    1
    51    22    23    1
@<TRIPOS>MOLECULE
*****
 46 51 0 0 0
SMALL
GASTEIGER

@<TRIPOS>ATOM
      1 C          60.3181   90.1672    6.8461 C.2     1  UNL1        0.0332
      2 C          59.5354   88.9199    7.1316 C.2     1  UNL1        0.0101
      3 C          59.7783   88.1557    8.3994 C.2     1  UNL1        0.0255
      4 C          58.9955   86.9084    8.6849 C.3     1  UNL1        0.0351
      5 C          60.8039   88.6389    9.3815 C.2     1  UNL1        0.2278
      6 N          61.2586   88.0992   10.7051 N.2     1  UNL1       -0.0345
      7 C          62.3223   89.0130   11.2376 C.2     1  UNL1        0.3649
      8 N          62.5251   90.1174   10.2430 N.2     1  UNL1       -0.0380
      9 C          61.5866   89.8862    9.0959 C.2     1  UNL1        0.2184
     10 C          61.3437   90.6503    7.8282 C.3     1  UNL1        0.1186
     11 C          63.0547   88.8508   12.5365 C.3     1  UNL1        0.2250
     12 C          63.3624   87.4783   13.0577 C.2     1  UNL1        0.0436
     13 C          64.0948   87.3163   14.3567 C.2     1  UNL1        0.0288
     14 C          64.5195   88.5265   15.1345 C.2     1  UNL1        0.0896
     15 N          64.2118   89.8990   14.6132 N.am    1  UNL1       -0.1770
     16 C          63.4794   90.0610   13.3142 C.2     1  UNL1        0.2627
     17 O          63.1717   91.4335   12.7930 O.2     1  UNL1       -0.2719
     18 N          62.9378   86.2680   12.2801 N.pl3   1  UNL1       -0.3329
     19 H          62.2942   86.3589   11.5407 H       1  UNL1        0.1466
     20 C          63.4937   84.9193   12.6290 C.3     1  UNL1        0.1211
     21 C          62.7059   83.9857   13.4996 C.3     1  UNL1        0.1522
     22 O          62.0082   84.5079   14.7204 O.3     1  UNL1       -0.3783
     23 H          62.1668   85.4615   14.8004 H       1  UNL1        0.2109
     24 C          62.6159   82.5300   13.1493 C.ar    1  UNL1        0.0067
     25 C          62.2294   81.5289   14.1973 C.ar    1  UNL1       -0.0018
     26 C          62.1394   80.0731   13.8470 C.ar    1  UNL1        0.0006
     27 C          62.4358   79.6185   12.4487 C.ar    1  UNL1        0.0114
     28 C          62.8223   80.6196   11.4007 C.ar    1  UNL1        0.0574
     29 CL         63.1188   80.1649   10.0023 Cl      1  UNL1       -0.0823
     30 C          62.9123   82.0753   11.7509 C.ar    1  UNL1        0.0095
     31 C          59.5896   92.4596    3.0429 C.3     1  UNL1        0.0610
     32 C          58.4359   92.0842    3.9249 C.3     1  UNL1        0.0374
     33 C          58.6788   91.3200    5.1927 C.3     1  UNL1        0.0919
     34 N          60.0752   90.9313    5.5783 N.pl3   1  UNL1       -0.3103
     35 C          61.2289   91.3068    4.6963 C.3     1  UNL1        0.0919
     36 C          60.9861   92.0710    3.4286 C.3     1  UNL1        0.0374
     37 C          58.6185   95.5163   -2.0280 C.2     1  UNL1        0.4051
     38 O          59.2621   96.8558   -2.2312 O.2     1  UNL1       -0.2262
     39 N          58.8612   94.7521   -0.7603 N.am    1  UNL1       -0.2432
     40 C          58.2176   93.4126   -0.5570 C.3     1  UNL1        0.1141
     41 C          58.4604   92.6484    0.7107 C.3     1  UNL1        0.0940
     42 N          59.3468   93.2238    1.7752 N.3     1  UNL1       -0.2710
     43 C          59.9905   94.5633    1.5719 C.3     1  UNL1        0.0940
     44 C          59.7477   95.3275    0.3042 C.3     1  UNL1        0.1141
     45 C          56.3061   95.3924   -3.2058 C.3     1  UNL1        0.2573
     46 O          57.7320   94.9410   -3.0925 O.3     1  UNL1       -0.4304
@<TRIPOS>BOND
     1    45    46    1
     2    46    37    1
     3    37    38    2
     4    37    39   am
     5    39    40    1
     6    40    41    1
     7    41    42    1
     8    42    31    1
     9    31    32    1
    10    32    33    1
    11    33    34    1
    12    34     1    1
    13     1     2    2
    14     2     3    1
    15     3     4    1
    16     3     5    2
    17     5     6    1
    18     6     7    2
    19     7    11    1
    20    11    12    1
    21    12    18    1
    22    18    20    1
    23    20    21    1
    24    21    22    1
    25    21    24    1
    26    24    25   ar
    27    25    26   ar
    28    26    27   ar
    29    27    28   ar
    30    28    29    1
    31    28    30   ar
    32    12    13    2
    33    13    14    1
    34    14    15    2
    35    15    16    1
    36    16    17    2
    37     7     8    1
    38     8     9    2
    39     9    10    1
    40    34    35    1
    41    35    36    1
    42    42    43    1
    43    43    44    1
    44    44    39    1
    45    36    31    1
    46    10     1    1
    47     9     5    1
    48    16    11    1
    49    30    24   ar
    50    18    19    1
    51    22    23    1
@<TRIPOS>MOLECULE
*****
 46 51 0 0 0
SMALL
GASTEIGER

@<TRIPOS>ATOM
      1 C          60.2770   89.9769    6.8241 C.2     1  UNL1        0.0332
      2 C          59.4319   88.7690    7.1006 C.2     1  UNL1        0.0101
      3 C          59.6534   87.9685    8.3497 C.2     1  UNL1        0.0255
      4 C          58.8082   86.7605    8.6262 C.3     1  UNL1        0.0351
      5 C          60.7202   88.3762    9.3223 C.2     1  UNL1        0.2278
      6 N          61.1664   87.7872   10.6277 N.2     1  UNL1       -0.0345
      7 C          62.2873   88.6312   11.1579 C.2     1  UNL1        0.3649
      8 N          62.5339   89.7418   10.1803 N.2     1  UNL1       -0.0380
      9 C          61.5653   89.5842    9.0458 C.2     1  UNL1        0.2184
     10 C          61.3437   90.3846    7.7967 C.3     1  UNL1        0.1186
     11 C          63.0311   88.4044   12.4406 C.3     1  UNL1        0.2250
     12 C          63.6083   89.5693   13.1889 C.2     1  UNL1        0.0436
     13 C          64.3521   89.3424   14.4716 C.2     1  UNL1        0.0288
     14 C          64.5188   87.9508   15.0060 C.2     1  UNL1        0.0896
     15 N          63.9416   86.7860   14.2578 N.am    1  UNL1       -0.1770
     16 C          63.1978   87.0128   12.9750 C.2     1  UNL1        0.2627
     17 O          62.6206   85.8480   12.2268 O.2     1  UNL1       -0.2719
     18 N          63.4417   90.9609   12.6545 N.pl3   1  UNL1       -0.3329
     19 H          62.6360   91.4808   12.8778 H       1  UNL1        0.1466
     20 C          64.5027   91.5606   11.7800 C.3     1  UNL1        0.1211
     21 C          65.3072   92.7279   12.2701 C.3     1  UNL1        0.1522
     22 O          65.2409   94.0407   11.5475 O.3     1  UNL1       -0.3783
     23 H          64.6368   93.9640   10.7924 H       1  UNL1        0.2109
     24 C          66.1781   92.5823   13.4827 C.ar    1  UNL1        0.0067
     25 C          65.5706   92.6350   14.8531 C.ar    1  UNL1       -0.0018
     26 C          66.4414   92.4895   16.0657 C.ar    1  UNL1        0.0006
     27 C          67.9199   92.2912   15.9079 C.ar    1  UNL1        0.0114
     28 C          68.5274   92.2385   14.5375 C.ar    1  UNL1        0.0574
     29 CL         70.0058   92.0402   14.3796 Cl      1  UNL1       -0.0823
     30 C          67.6565   92.3841   13.3249 C.ar    1  UNL1        0.0095
     31 C          59.6125   92.3782    3.0768 C.3     1  UNL1        0.0610
     32 C          58.4528   92.0390    3.9656 C.3     1  UNL1        0.0374
     33 C          58.6744   91.2386    5.2148 C.3     1  UNL1        0.0919
     34 N          60.0554   90.7774    5.5750 N.pl3   1  UNL1       -0.3103
     35 C          61.2151   91.1166    4.6861 C.3     1  UNL1        0.0919
     36 C          60.9936   91.9170    3.4370 C.3     1  UNL1        0.0374
     37 C          58.7266   95.5800   -1.9197 C.2     1  UNL1        0.4051
     38 O          59.4902   96.8519   -2.1406 O.2     1  UNL1       -0.2262
     39 N          58.9480   94.7795   -0.6705 N.am    1  UNL1       -0.2432
     40 C          58.1844   93.5075   -0.4496 C.3     1  UNL1        0.1141
     41 C          58.4059   92.7070    0.7995 C.3     1  UNL1        0.0940
     42 N          59.3910   93.1786    1.8277 N.3     1  UNL1       -0.2710
     43 C          60.1546   94.4507    1.6067 C.3     1  UNL1        0.0940
     44 C          59.9331   95.2511    0.3576 C.3     1  UNL1        0.1141
     45 C          56.2874   95.4479   -2.8045 C.3     1  UNL1        0.2573
     46 O          57.7415   95.1084   -2.9478 O.3     1  UNL1       -0.4304
@<TRIPOS>BOND
     1    45    46    1
     2    46    37    1
     3    37    38    2
     4    37    39   am
     5    39    40    1
     6    40    41    1
     7    41    42    1
     8    42    31    1
     9    31    32    1
    10    32    33    1
    11    33    34    1
    12    34     1    1
    13     1     2    2
    14     2     3    1
    15     3     4    1
    16     3     5    2
    17     5     6    1
    18     6     7    2
    19     7    11    1
    20    11    12    1
    21    12    18    1
    22    18    20    1
    23    20    21    1
    24    21    22    1
    25    21    24    1
    26    24    25   ar
    27    25    26   ar
    28    26    27   ar
    29    27    28   ar
    30    28    29    1
    31    28    30   ar
    32    12    13    2
    33    13    14    1
    34    14    15    2
    35    15    16    1
    36    16    17    2
    37     7     8    1
    38     8     9    2
    39     9    10    1
    40    34    35    1
    41    35    36    1
    42    42    43    1
    43    43    44    1
    44    44    39    1
    45    36    31    1
    46    10     1    1
    47     9     5    1
    48    16    11    1
    49    30    24   ar
    50    18    19    1
    51    22    23    1
@<TRIPOS>MOLECULE
*****
 46 51 0 0 0
SMALL
GASTEIGER

@<TRIPOS>ATOM
      1 C          60.3875   89.2954    7.9968 C.2     1  UNL1        0.0332
      2 C          59.6452   89.6197    9.2592 C.2     1  UNL1        0.0101
      3 C          59.8622   88.7912   10.4908 C.2     1  UNL1        0.0255
      4 C          59.1198   89.1155   11.7532 C.3     1  UNL1        0.0351
      5 C          60.8214   87.6384   10.4598 C.2     1  UNL1        0.2278
      6 N          61.2379   86.6508   11.5091 N.2     1  UNL1       -0.0345
      7 C          62.2375   85.7161   10.8951 C.2     1  UNL1        0.3649
      8 N          62.4389   86.1261    9.4663 N.2     1  UNL1       -0.0380
      9 C          61.5637   87.3142    9.1973 C.2     1  UNL1        0.2184
     10 C          61.3467   88.1427    7.9658 C.3     1  UNL1        0.1186
     11 C          62.9166   84.5722   11.5882 C.3     1  UNL1        0.2250
     12 C          63.3130   84.6973   13.0295 C.2     1  UNL1        0.0436
     13 C          63.9921   83.5533   13.7225 C.2     1  UNL1        0.0288
     14 C          64.2749   82.2844   12.9743 C.2     1  UNL1        0.0896
     15 N          63.8785   82.1593   11.5330 N.am    1  UNL1       -0.1770
     16 C          63.1994   83.3033   10.8400 C.2     1  UNL1        0.2627
     17 O          62.8031   83.1782    9.3988 O.2     1  UNL1       -0.2719
     18 N          63.0303   85.9662   13.7777 N.pl3   1  UNL1       -0.3329
     19 H          62.1003   86.2355   13.9564 H       1  UNL1        0.1466
     20 C          64.1643   86.8248   14.2537 C.3     1  UNL1        0.1211
     21 C          63.8907   88.1976   14.7928 C.3     1  UNL1        0.1522
     22 O          63.3996   88.3665   16.2001 O.3     1  UNL1       -0.3783
     23 H          63.3136   87.4960   16.6192 H       1  UNL1        0.2109
     24 C          64.1081   89.4013   13.9247 C.ar    1  UNL1        0.0067
     25 C          65.0696   90.4704   14.3519 C.ar    1  UNL1       -0.0018
     26 C          65.2871   91.6741   13.4838 C.ar    1  UNL1        0.0006
     27 C          64.5429   91.8089   12.1883 C.ar    1  UNL1        0.0114
     28 C          63.5814   90.7398   11.7611 C.ar    1  UNL1        0.0574
     29 CL         62.8373   90.8745   10.4657 Cl      1  UNL1       -0.0823
     30 C          63.3640   89.5360   12.6293 C.ar    1  UNL1        0.0095
     31 C          59.7369   91.7808    4.3022 C.3     1  UNL1        0.0610
     32 C          58.5674   91.3786    5.1511 C.3     1  UNL1        0.0374
     33 C          58.7843   90.5501    6.3826 C.3     1  UNL1        0.0919
     34 N          60.1706   90.1239    6.7653 N.pl3   1  UNL1       -0.3103
     35 C          61.3400   90.5261    5.9164 C.3     1  UNL1        0.0919
     36 C          61.1232   91.3546    4.6849 C.3     1  UNL1        0.0374
     37 C          58.8695   95.0946   -0.6239 C.2     1  UNL1        0.4051
     38 O          59.5725   96.4109   -0.7756 O.2     1  UNL1       -0.2262
     39 N          59.0863   94.2661    0.6077 N.am    1  UNL1       -0.2432
     40 C          58.3833   92.9499    0.7595 C.3     1  UNL1        0.1141
     41 C          58.6001   92.1214    1.9910 C.3     1  UNL1        0.0940
     42 N          59.5200   92.6092    3.0707 N.3     1  UNL1       -0.2710
     43 C          60.2231   93.9255    2.9189 C.3     1  UNL1        0.0940
     44 C          60.0062   94.7540    1.6874 C.3     1  UNL1        0.1141
     45 C          56.4979   94.9837   -1.6790 C.3     1  UNL1        0.2573
     46 O          57.9496   94.6068   -1.7035 O.3     1  UNL1       -0.4304
@<TRIPOS>BOND
     1    45    46    1
     2    46    37    1
     3    37    38    2
     4    37    39   am
     5    39    40    1
     6    40    41    1
     7    41    42    1
     8    42    31    1
     9    31    32    1
    10    32    33    1
    11    33    34    1
    12    34     1    1
    13     1     2    2
    14     2     3    1
    15     3     4    1
    16     3     5    2
    17     5     6    1
    18     6     7    2
    19     7    11    1
    20    11    12    1
    21    12    18    1
    22    18    20    1
    23    20    21    1
    24    21    22    1
    25    21    24    1
    26    24    25   ar
    27    25    26   ar
    28    26    27   ar
    29    27    28   ar
    30    28    29    1
    31    28    30   ar
    32    12    13    2
    33    13    14    1
    34    14    15    2
    35    15    16    1
    36    16    17    2
    37     7     8    1
    38     8     9    2
    39     9    10    1
    40    34    35    1
    41    35    36    1
    42    42    43    1
    43    43    44    1
    44    44    39    1
    45    36    31    1
    46    10     1    1
    47     9     5    1
    48    16    11    1
    49    30    24   ar
    50    18    19    1
    51    22    23    1
@<TRIPOS>MOLECULE
*****
 46 51 0 0 0
SMALL
GASTEIGER

@<TRIPOS>ATOM
      1 C          57.9483   95.9577   -5.2444 C.2     1  UNL1        0.0332
      2 C          58.8333   95.8143   -6.4469 C.2     1  UNL1        0.0101
      3 C          60.3243   95.7965   -6.2831 C.2     1  UNL1        0.0255
      4 C          61.2093   95.6531   -7.4858 C.3     1  UNL1        0.0351
      5 C          60.9301   95.9223   -4.9167 C.2     1  UNL1        0.2278
      6 N          62.3550   95.9372   -4.4481 N.2     1  UNL1       -0.0345
      7 C          62.3505   96.0899   -2.9559 C.2     1  UNL1        0.3649
      8 N          60.9230   96.1694   -2.5023 N.2     1  UNL1       -0.0380
      9 C          60.0451   96.0657   -3.7142 C.2     1  UNL1        0.2184
     10 C          58.5542   96.0834   -3.8780 C.3     1  UNL1        0.1186
     11 C          63.5611   96.1523   -2.0724 C.3     1  UNL1        0.2250
     12 C          63.4175   96.5352   -0.6292 C.2     1  UNL1        0.0436
     13 C          64.6281   96.5975    0.2542 C.2     1  UNL1        0.0288
     14 C          65.9824   96.2770   -0.3054 C.2     1  UNL1        0.0896
     15 N          66.1261   95.8941   -1.7486 N.am    1  UNL1       -0.1770
     16 C          64.9154   95.8318   -2.6321 C.2     1  UNL1        0.2627
     17 O          65.0591   95.4489   -4.0752 O.2     1  UNL1       -0.2719
     18 N          62.0633   96.8557   -0.0695 N.pl3   1  UNL1       -0.3329
     19 H          61.3328   97.1252   -0.6720 H       1  UNL1        0.1466
     20 C          61.8219   96.7655    1.4082 C.3     1  UNL1        0.1211
     21 C          60.8936   95.7215    1.9542 C.3     1  UNL1        0.1522
     22 O          59.7348   96.1254    2.8168 O.3     1  UNL1       -0.3783
     23 H          59.7307   97.0896    2.9221 H       1  UNL1        0.2109
     24 C          61.1240   94.2735    1.6375 C.ar    1  UNL1        0.0067
     25 C          60.4360   93.6440    0.4626 C.ar    1  UNL1       -0.0018
     26 C          60.6664   92.1960    0.1460 C.ar    1  UNL1        0.0006
     27 C          61.5849   91.3775    1.0041 C.ar    1  UNL1        0.0114
     28 C          62.2729   92.0071    2.1789 C.ar    1  UNL1        0.0574
     29 CL         63.1914   91.1885    3.0371 Cl      1  UNL1       -0.0823
     30 C          62.0425   93.4550    2.4956 C.ar    1  UNL1        0.0095
     31 C          53.4755   96.0109   -5.7357 C.3     1  UNL1        0.0610
     32 C          54.3635   96.1548   -6.9359 C.3     1  UNL1        0.0374
     33 C          55.8545   96.1371   -6.7721 C.3     1  UNL1        0.0919
     34 N          56.4573   95.9754   -5.4082 N.pl3   1  UNL1       -0.3103
     35 C          55.5693   95.8315   -4.2080 C.3     1  UNL1        0.0919
     36 C          54.0784   95.8492   -4.3717 C.3     1  UNL1        0.0374
     37 C          47.5117   96.0818   -6.3905 C.2     1  UNL1        0.4051
     38 O          46.6556   96.7963   -5.3874 O.2     1  UNL1       -0.2262
     39 N          49.0027   96.0641   -6.2268 N.am    1  UNL1       -0.2432
     40 C          49.8589   95.3496   -7.2299 C.3     1  UNL1        0.1141
     41 C          51.3499   95.3318   -7.0662 C.3     1  UNL1        0.0940
     42 N          51.9846   96.0286   -5.8994 N.3     1  UNL1       -0.2710
     43 C          51.1283   96.7432   -4.8962 C.3     1  UNL1        0.0940
     44 C          49.6374   96.7609   -5.0600 C.3     1  UNL1        0.1141
     45 C          45.6697   94.5198   -7.3481 C.3     1  UNL1        0.2573
     46 O          46.8770   95.3850   -7.5574 O.3     1  UNL1       -0.4304
@<TRIPOS>BOND
     1    45    46    1
     2    46    37    1
     3    37    38    2
     4    37    39   am
     5    39    40    1
     6    40    41    1
     7    41    42    1
     8    42    31    1
     9    31    32    1
    10    32    33    1
    11    33    34    1
    12    34     1    1
    13     1     2    2
    14     2     3    1
    15     3     4    1
    16     3     5    2
    17     5     6    1
    18     6     7    2
    19     7    11    1
    20    11    12    1
    21    12    18    1
    22    18    20    1
    23    20    21    1
    24    21    22    1
    25    21    24    1
    26    24    25   ar
    27    25    26   ar
    28    26    27   ar
    29    27    28   ar
    30    28    29    1
    31    28    30   ar
    32    12    13    2
    33    13    14    1
    34    14    15    2
    35    15    16    1
    36    16    17    2
    37     7     8    1
    38     8     9    2
    39     9    10    1
    40    34    35    1
    41    35    36    1
    42    42    43    1
    43    43    44    1
    44    44    39    1
    45    36    31    1
    46    10     1    1
    47     9     5    1
    48    16    11    1
    49    30    24   ar
    50    18    19    1
    51    22    23    1
