@<TRIPOS>MOLECULE
*****
 38 41 0 0 0
SMALL
GASTEIGER

@<TRIPOS>ATOM
      1 N          63.5844   83.8537   12.8595 N.ar    1  UNL1       -0.2340
      2 C          64.2763   84.9239   13.6506 C.ar    1  UNL1        0.3338
      3 O          65.2788   84.5499   14.7019 O.2     1  UNL1       -0.2463
      4 N          63.9657   86.3681   13.3904 N.ar    1  UNL1       -0.2776
      5 C          62.9633   86.7422   12.3392 C.ar    1  UNL1        0.2175
      6 N          62.6527   88.1864   12.0790 N.2     1  UNL1       -0.2128
      7 N          62.2714   85.6719   11.5481 N.ar    1  UNL1       -0.2479
      8 C          62.5820   84.2277   11.8082 C.ar    1  UNL1        0.3373
      9 O          61.8900   83.1574   11.0171 O.2     1  UNL1       -0.2461
     10 H          64.4198   87.0706   13.9097 H       1  UNL1        0.1733
     11 C          63.3446   89.2566   12.8701 C.ar    1  UNL1        0.0846
     12 C          63.8104   88.9737   14.2676 C.ar    1  UNL1        0.0223
     13 C          64.5023   90.0440   15.0587 C.ar    1  UNL1        0.0390
     14 C          64.7284   91.3972   14.4523 C.ar    1  UNL1        0.1454
     15 C          64.2626   91.6801   13.0548 C.ar    1  UNL1        0.0390
     16 C          63.5707   90.6099   12.2637 C.ar    1  UNL1        0.0223
     17 O          65.4203   92.4675   15.2434 O.3     1  UNL1       -0.4533
     18 C          66.9013   92.6624   15.1066 C.ar    1  UNL1        0.1507
     19 C          67.6305   93.5628   16.0593 C.ar    1  UNL1        0.0583
     20 C          69.1114   93.7576   15.9225 C.ar    1  UNL1        0.1044
     21 N          69.8632   93.0521   14.8329 N.ar    1  UNL1       -0.2163
     22 C          69.1340   92.1517   13.8802 C.ar    1  UNL1        0.2254
     23 F          69.8858   91.4463   12.7907 F       1  UNL1       -0.1831
     24 C          67.6530   91.9569   14.0171 C.ar    1  UNL1        0.0871
     25 C          63.8950   82.4094   13.1196 C.3     1  UNL1        0.1205
     26 C          62.7519   80.1365   12.5927 C.3     1  UNL1        0.0079
     27 C          62.7804   81.4320   13.3484 C.3     1  UNL1        0.0594
     28 C          61.6943   81.7500   14.3329 C.2     1  UNL1        0.0519
     29 O          60.4649   80.8929   14.3961 O.co2   1  UNL1       -0.5491
     30 O          61.8376   82.9250   15.2542 O.co2   1  UNL1       -0.5491
     31 C          61.2689   86.0459   10.4968 C.3     1  UNL1        0.1401
     32 C          61.4802   85.6208    9.0739 C.ar    1  UNL1        0.0007
     33 C          62.8313   85.1483    8.6251 C.ar    1  UNL1       -0.0015
     34 C          63.0425   84.7232    7.2021 C.ar    1  UNL1        0.0111
     35 C          61.9028   84.7706    6.2281 C.ar    1  UNL1        0.0577
     36 CL         62.1142   84.3455    4.8052 Cl      1  UNL1       -0.0822
     37 C          60.5518   85.2431    6.6769 C.ar    1  UNL1        0.0111
     38 C          60.3405   85.6682    8.0998 C.ar    1  UNL1       -0.0015
@<TRIPOS>UNITY_ATOM_ATTR
29 1
charge -1
@<TRIPOS>BOND
     1    27    26    1
     2    27    25    1
     3    25     1    1
     4     1     2   ar
     5     2     3    2
     6     2     4   ar
     7     4     5   ar
     8     5     6    2
     9     6    11    1
    10    11    12   ar
    11    12    13   ar
    12    13    14   ar
    13    14    17    1
    14    17    18    1
    15    18    19   ar
    16    19    20   ar
    17    20    21   ar
    18    21    22   ar
    19    22    23    1
    20    22    24   ar
    21    14    15   ar
    22    15    16   ar
    23     5     7   ar
    24     7    31    1
    25    31    32    1
    26    32    33   ar
    27    33    34   ar
    28    34    35   ar
    29    35    36    1
    30    35    37   ar
    31    37    38   ar
    32     7     8   ar
    33     8     9    2
    34    27    28    1
    35    28    29   ar
    36    28    30   ar
    37     8     1   ar
    38    16    11   ar
    39    38    32   ar
    40    24    18   ar
    41     4    10    1
@<TRIPOS>MOLECULE
*****
 38 41 0 0 0
SMALL
GASTEIGER

@<TRIPOS>ATOM
      1 N          63.4689   84.9525   13.6671 N.ar    1  UNL1       -0.2340
      2 C          64.2533   86.1940   13.9725 C.ar    1  UNL1        0.3338
      3 O          65.3219   86.1661   15.0249 O.2     1  UNL1       -0.2463
      4 N          63.9693   87.4634   13.2256 N.ar    1  UNL1       -0.2776
      5 C          62.9008   87.4914   12.1732 C.ar    1  UNL1        0.2175
      6 N          62.6168   88.7608   11.4263 N.2     1  UNL1       -0.2128
      7 N          62.1164   86.2499   11.8678 N.ar    1  UNL1       -0.2479
      8 C          62.4004   84.9805   12.6147 C.ar    1  UNL1        0.3373
      9 O          61.6159   83.7390   12.3093 O.2     1  UNL1       -0.2461
     10 H          64.4842   88.2783   13.4261 H       1  UNL1        0.1733
     11 C          63.4012   90.0023   11.7318 C.ar    1  UNL1        0.0846
     12 C          63.9808   90.2055   13.1002 C.ar    1  UNL1        0.0223
     13 C          64.7653   91.4471   13.4056 C.ar    1  UNL1        0.0390
     14 C          64.9701   92.4853   12.3426 C.ar    1  UNL1        0.1454
     15 C          64.3905   92.2820   10.9741 C.ar    1  UNL1        0.0390
     16 C          63.6060   91.0406   10.6687 C.ar    1  UNL1        0.0223
     17 O          65.7546   93.7269   12.6480 O.3     1  UNL1       -0.4533
     18 C          66.3315   94.5435   11.5298 C.ar    1  UNL1        0.1507
     19 C          66.2239   96.0394   11.5607 C.ar    1  UNL1        0.0583
     20 C          66.8008   96.8560   10.4425 C.ar    1  UNL1        0.1044
     21 N          67.4854   96.1768    9.2935 N.ar    1  UNL1       -0.2163
     22 C          67.5929   94.6810    9.2627 C.ar    1  UNL1        0.2254
     23 F          68.2774   94.0018    8.1138 F       1  UNL1       -0.1831
     24 C          67.0160   93.8643   10.3809 C.ar    1  UNL1        0.0871
     25 C          63.7529   83.6831   14.4140 C.3     1  UNL1        0.1205
     26 C          64.6292   82.1917   12.4755 C.3     1  UNL1        0.0079
     27 C          63.7629   82.3712   13.6868 C.3     1  UNL1        0.0594
     28 C          62.9065   81.2388   14.1709 C.2     1  UNL1        0.0519
     29 O          63.5183   79.8945   14.4324 O.co2   1  UNL1       -0.5491
     30 O          61.4383   81.4509   14.3936 O.co2   1  UNL1       -0.5491
     31 C          61.0478   86.2778   10.8154 C.3     1  UNL1        0.1401
     32 C          61.3544   85.8126    9.4227 C.ar    1  UNL1        0.0007
     33 C          60.3209   85.9440    8.3435 C.ar    1  UNL1       -0.0015
     34 C          60.6276   85.4788    6.9508 C.ar    1  UNL1        0.0111
     35 C          61.9677   84.8823    6.6373 C.ar    1  UNL1        0.0577
     36 CL         62.2743   84.4172    5.2447 Cl      1  UNL1       -0.0822
     37 C          63.0012   84.7509    7.7166 C.ar    1  UNL1        0.0111
     38 C          62.6945   85.2161    9.1092 C.ar    1  UNL1       -0.0015
@<TRIPOS>UNITY_ATOM_ATTR
29 1
charge -1
@<TRIPOS>BOND
     1    27    26    1
     2    27    25    1
     3    25     1    1
     4     1     2   ar
     5     2     3    2
     6     2     4   ar
     7     4     5   ar
     8     5     6    2
     9     6    11    1
    10    11    12   ar
    11    12    13   ar
    12    13    14   ar
    13    14    17    1
    14    17    18    1
    15    18    19   ar
    16    19    20   ar
    17    20    21   ar
    18    21    22   ar
    19    22    23    1
    20    22    24   ar
    21    14    15   ar
    22    15    16   ar
    23     5     7   ar
    24     7    31    1
    25    31    32    1
    26    32    33   ar
    27    33    34   ar
    28    34    35   ar
    29    35    36    1
    30    35    37   ar
    31    37    38   ar
    32     7     8   ar
    33     8     9    2
    34    27    28    1
    35    28    29   ar
    36    28    30   ar
    37     8     1   ar
    38    16    11   ar
    39    38    32   ar
    40    24    18   ar
    41     4    10    1
@<TRIPOS>MOLECULE
*****
 38 41 0 0 0
SMALL
GASTEIGER

@<TRIPOS>ATOM
      1 N          61.6536   86.7620   10.5927 N.ar    1  UNL1       -0.2340
      2 C          62.0862   88.1935   10.4761 C.ar    1  UNL1        0.3338
      3 O          61.6272   89.0233    9.3138 O.2     1  UNL1       -0.2463
      4 N          62.9778   88.7952   11.5216 N.ar    1  UNL1       -0.2776
      5 C          63.4367   87.9654   12.6838 C.ar    1  UNL1        0.2175
      6 N          64.3283   88.5670   13.7293 N.2     1  UNL1       -0.2128
      7 N          63.0041   86.5339   12.8005 N.ar    1  UNL1       -0.2479
      8 C          62.1125   85.9322   11.7549 C.ar    1  UNL1        0.3373
      9 O          61.6799   84.5006   11.8717 O.2     1  UNL1       -0.2461
     10 H          63.2617   89.7347   11.4450 H       1  UNL1        0.1733
     11 C          64.7609   89.9985   13.6126 C.ar    1  UNL1        0.0846
     12 C          65.7356   90.5703   14.5990 C.ar    1  UNL1        0.0223
     13 C          66.1682   92.0019   14.4823 C.ar    1  UNL1        0.0390
     14 C          65.6261   92.8616   13.3792 C.ar    1  UNL1        0.1454
     15 C          64.6514   92.2898   12.3927 C.ar    1  UNL1        0.0390
     16 C          64.2188   90.8583   12.5094 C.ar    1  UNL1        0.0223
     17 O          66.0587   94.2931   13.2624 O.3     1  UNL1       -0.4533
     18 C          66.4178   94.8611   11.9214 C.ar    1  UNL1        0.1507
     19 C          66.0824   96.2866   11.5964 C.ar    1  UNL1        0.0583
     20 C          66.4416   96.8546   10.2553 C.ar    1  UNL1        0.1044
     21 N          67.1362   95.9970    9.2393 N.ar    1  UNL1       -0.2163
     22 C          67.4715   94.5716    9.5643 C.ar    1  UNL1        0.2254
     23 F          68.1661   93.7142    8.5483 F       1  UNL1       -0.1831
     24 C          67.1124   94.0037   10.9053 C.ar    1  UNL1        0.0871
     25 C          60.7620   86.1603    9.5472 C.3     1  UNL1        0.1205
     26 C          62.8184   85.3001    8.2125 C.3     1  UNL1        0.0079
     27 C          61.3532   85.6139    8.2816 C.3     1  UNL1        0.0594
     28 C          60.4791   85.3813    7.0849 C.2     1  UNL1        0.0519
     29 O          59.1642   86.0932    6.9668 O.co2   1  UNL1       -0.5491
     30 O          60.9201   84.4366    6.0064 O.co2   1  UNL1       -0.5491
     31 C          63.4631   85.7040   13.9627 C.3     1  UNL1        0.1401
     32 C          63.3365   84.2102   13.9140 C.ar    1  UNL1        0.0007
     33 C          62.2110   83.5289   14.6345 C.ar    1  UNL1       -0.0015
     34 C          62.0845   82.0350   14.5857 C.ar    1  UNL1        0.0111
     35 C          63.0835   81.2224   13.8166 C.ar    1  UNL1        0.0577
     36 CL         62.9569   79.7286   13.7679 Cl      1  UNL1       -0.0822
     37 C          64.2090   81.9037   13.0962 C.ar    1  UNL1        0.0111
     38 C          64.3356   83.3975   13.1448 C.ar    1  UNL1       -0.0015
@<TRIPOS>UNITY_ATOM_ATTR
29 1
charge -1
@<TRIPOS>BOND
     1    27    26    1
     2    27    25    1
     3    25     1    1
     4     1     2   ar
     5     2     3    2
     6     2     4   ar
     7     4     5   ar
     8     5     6    2
     9     6    11    1
    10    11    12   ar
    11    12    13   ar
    12    13    14   ar
    13    14    17    1
    14    17    18    1
    15    18    19   ar
    16    19    20   ar
    17    20    21   ar
    18    21    22   ar
    19    22    23    1
    20    22    24   ar
    21    14    15   ar
    22    15    16   ar
    23     5     7   ar
    24     7    31    1
    25    31    32    1
    26    32    33   ar
    27    33    34   ar
    28    34    35   ar
    29    35    36    1
    30    35    37   ar
    31    37    38   ar
    32     7     8   ar
    33     8     9    2
    34    27    28    1
    35    28    29   ar
    36    28    30   ar
    37     8     1   ar
    38    16    11   ar
    39    38    32   ar
    40    24    18   ar
    41     4    10    1
@<TRIPOS>MOLECULE
*****
 38 41 0 0 0
SMALL
GASTEIGER

@<TRIPOS>ATOM
      1 N          63.1499   93.7501    1.0216 N.ar    1  UNL1       -0.2340
      2 C          63.0476   92.6921    2.0799 C.ar    1  UNL1        0.3338
      3 O          64.2521   91.8748    2.4423 O.2     1  UNL1       -0.2463
      4 N          61.7408   92.4514    2.7759 N.ar    1  UNL1       -0.2776
      5 C          60.5364   93.2686    2.4137 C.ar    1  UNL1        0.2175
      6 N          59.2296   93.0279    3.1097 N.2     1  UNL1       -0.2128
      7 N          60.6387   94.3267    1.3553 N.ar    1  UNL1       -0.2479
      8 C          61.9454   94.5674    0.6593 C.ar    1  UNL1        0.3373
      9 O          62.0477   95.6255   -0.3990 O.2     1  UNL1       -0.2461
     10 H          61.6737   91.7569    3.4706 H       1  UNL1        0.1733
     11 C          59.1274   91.9698    4.1680 C.ar    1  UNL1        0.0846
     12 C          57.7877   91.6018    4.7336 C.ar    1  UNL1        0.0223
     13 C          57.6855   90.5437    5.7919 C.ar    1  UNL1        0.0390
     14 C          58.9228   89.8537    6.2847 C.ar    1  UNL1        0.1454
     15 C          60.2625   90.2218    5.7191 C.ar    1  UNL1        0.0390
     16 C          60.3648   91.2798    4.6608 C.ar    1  UNL1        0.0223
     17 O          58.8206   88.7956    7.3431 O.3     1  UNL1       -0.4533
     18 C          59.9335   88.6144    8.3323 C.ar    1  UNL1        0.1507
     19 C          60.2594   89.7102    9.3036 C.ar    1  UNL1        0.0583
     20 C          61.3722   89.5290   10.2929 C.ar    1  UNL1        0.1044
     21 N          62.1592   88.2520   10.3109 N.ar    1  UNL1       -0.2163
     22 C          61.8332   87.1564    9.3397 C.ar    1  UNL1        0.2254
     23 F          62.6201   85.8795    9.3579 F       1  UNL1       -0.1831
     24 C          60.7204   87.3376    8.3505 C.ar    1  UNL1        0.0871
     25 C          64.4566   93.9909    0.3256 C.3     1  UNL1        0.1205
     26 C          65.2381   96.0426    1.7148 C.3     1  UNL1        0.0079
     27 C          65.1059   95.3412    0.3954 C.3     1  UNL1        0.0594
     28 C          65.6231   95.9903   -0.8541 C.2     1  UNL1        0.0519
     29 O          66.8469   96.8559   -0.7983 O.co2   1  UNL1       -0.5491
     30 O          64.9165   95.7737   -2.1594 O.co2   1  UNL1       -0.5491
     31 C          59.4342   95.1440    0.9930 C.3     1  UNL1        0.1401
     32 C          58.5781   94.7426   -0.1714 C.ar    1  UNL1        0.0007
     33 C          58.2908   93.2926   -0.4265 C.ar    1  UNL1       -0.0015
     34 C          57.4346   92.8913   -1.5910 C.ar    1  UNL1        0.0111
     35 C          56.8658   93.9398   -2.5003 C.ar    1  UNL1        0.0577
     36 CL         56.0097   93.5384   -3.6647 Cl      1  UNL1       -0.0822
     37 C          57.1531   95.3898   -2.2452 C.ar    1  UNL1        0.0111
     38 C          58.0092   95.7912   -1.0808 C.ar    1  UNL1       -0.0015
@<TRIPOS>UNITY_ATOM_ATTR
29 1
charge -1
@<TRIPOS>BOND
     1    27    26    1
     2    27    25    1
     3    25     1    1
     4     1     2   ar
     5     2     3    2
     6     2     4   ar
     7     4     5   ar
     8     5     6    2
     9     6    11    1
    10    11    12   ar
    11    12    13   ar
    12    13    14   ar
    13    14    17    1
    14    17    18    1
    15    18    19   ar
    16    19    20   ar
    17    20    21   ar
    18    21    22   ar
    19    22    23    1
    20    22    24   ar
    21    14    15   ar
    22    15    16   ar
    23     5     7   ar
    24     7    31    1
    25    31    32    1
    26    32    33   ar
    27    33    34   ar
    28    34    35   ar
    29    35    36    1
    30    35    37   ar
    31    37    38   ar
    32     7     8   ar
    33     8     9    2
    34    27    28    1
    35    28    29   ar
    36    28    30   ar
    37     8     1   ar
    38    16    11   ar
    39    38    32   ar
    40    24    18   ar
    41     4    10    1
@<TRIPOS>MOLECULE
*****
 38 41 0 0 0
SMALL
GASTEIGER

@<TRIPOS>ATOM
      1 N          59.6844   88.4526    8.0747 N.ar    1  UNL1       -0.2340
      2 C          60.1398   89.4563    9.0921 C.ar    1  UNL1        0.3338
      3 O          59.5497   90.8354    9.1014 O.2     1  UNL1       -0.2463
      4 N          61.1851   89.0810   10.1002 N.ar    1  UNL1       -0.2776
      5 C          61.7752   87.7020   10.0909 C.ar    1  UNL1        0.2175
      6 N          62.8206   87.3268   11.0991 N.2     1  UNL1       -0.2128
      7 N          61.3199   86.6983    9.0735 N.ar    1  UNL1       -0.2479
      8 C          60.2745   87.0736    8.0654 C.ar    1  UNL1        0.3373
      9 O          59.8192   86.0698    7.0479 O.2     1  UNL1       -0.2461
     10 H          61.4840   89.7398   10.7680 H       1  UNL1        0.1733
     11 C          63.2759   88.3305   12.1165 C.ar    1  UNL1        0.0846
     12 C          63.8388   87.8672   13.4274 C.ar    1  UNL1        0.0223
     13 C          64.2941   88.8710   14.4448 C.ar    1  UNL1        0.0390
     14 C          64.1866   90.3380   14.1513 C.ar    1  UNL1        0.1454
     15 C          63.6237   90.8013   12.8404 C.ar    1  UNL1        0.0390
     16 C          63.1684   89.7976   11.8230 C.ar    1  UNL1        0.0223
     17 O          64.6419   91.3418   15.1688 O.3     1  UNL1       -0.4533
     18 C          66.0357   91.8929   15.1071 C.ar    1  UNL1        0.1507
     19 C          66.5168   92.8363   16.1694 C.ar    1  UNL1        0.0583
     20 C          67.9106   93.3874   16.1078 C.ar    1  UNL1        0.1044
     21 N          68.8232   92.9949   14.9838 N.ar    1  UNL1       -0.2163
     22 C          68.3420   92.0515   13.9216 C.ar    1  UNL1        0.2254
     23 F          69.2546   91.6591   12.7977 F       1  UNL1       -0.1831
     24 C          66.9482   91.5005   13.9832 C.ar    1  UNL1        0.0871
     25 C          58.6391   88.8278    7.0665 C.3     1  UNL1        0.1205
     26 C          60.3070   90.1867    5.6100 C.3     1  UNL1        0.0079
     27 C          58.9070   89.9274    6.0820 C.3     1  UNL1        0.0594
     28 C          57.7750   90.7675    5.5695 C.2     1  UNL1        0.0519
     29 O          56.3573   90.3258    5.7817 O.co2   1  UNL1       -0.5491
     30 O          58.0607   92.0495    4.8449 O.co2   1  UNL1       -0.5491
     31 C          61.9100   85.3192    9.0642 C.3     1  UNL1        0.1401
     32 C          62.5171   84.7548   10.3143 C.ar    1  UNL1        0.0007
     33 C          63.7870   83.9601   10.2386 C.ar    1  UNL1       -0.0015
     34 C          64.3941   83.3956   11.4888 C.ar    1  UNL1        0.0111
     35 C          63.7312   83.6258   12.8145 C.ar    1  UNL1        0.0577
     36 CL         64.3383   83.0613   14.0646 Cl      1  UNL1       -0.0822
     37 C          62.4613   84.4205   12.8902 C.ar    1  UNL1        0.0111
     38 C          61.8542   84.9849   11.6401 C.ar    1  UNL1       -0.0015
@<TRIPOS>UNITY_ATOM_ATTR
29 1
charge -1
@<TRIPOS>BOND
     1    27    26    1
     2    27    25    1
     3    25     1    1
     4     1     2   ar
     5     2     3    2
     6     2     4   ar
     7     4     5   ar
     8     5     6    2
     9     6    11    1
    10    11    12   ar
    11    12    13   ar
    12    13    14   ar
    13    14    17    1
    14    17    18    1
    15    18    19   ar
    16    19    20   ar
    17    20    21   ar
    18    21    22   ar
    19    22    23    1
    20    22    24   ar
    21    14    15   ar
    22    15    16   ar
    23     5     7   ar
    24     7    31    1
    25    31    32    1
    26    32    33   ar
    27    33    34   ar
    28    34    35   ar
    29    35    36    1
    30    35    37   ar
    31    37    38   ar
    32     7     8   ar
    33     8     9    2
    34    27    28    1
    35    28    29   ar
    36    28    30   ar
    37     8     1   ar
    38    16    11   ar
    39    38    32   ar
    40    24    18   ar
    41     4    10    1
@<TRIPOS>MOLECULE
*****
 38 41 0 0 0
SMALL
GASTEIGER

@<TRIPOS>ATOM
      1 N          63.0188   84.4425   13.1421 N.ar    1  UNL1       -0.2340
      2 C          63.7858   85.5253   13.8415 C.ar    1  UNL1        0.3338
      3 O          64.6820   85.1844   14.9951 O.2     1  UNL1       -0.2463
      4 N          63.6567   86.9491   13.3874 N.ar    1  UNL1       -0.2776
      5 C          62.7605   87.2900   12.2339 C.ar    1  UNL1        0.2175
      6 N          62.6314   88.7138   11.7797 N.2     1  UNL1       -0.2128
      7 N          61.9935   86.2072   11.5345 N.ar    1  UNL1       -0.2479
      8 C          62.1226   84.7835   11.9886 C.ar    1  UNL1        0.3373
      9 O          61.3556   83.7006   11.2891 O.2     1  UNL1       -0.2461
     10 H          64.1601   87.6597   13.8464 H       1  UNL1        0.1733
     11 C          63.3984   89.7966   12.4791 C.ar    1  UNL1        0.0846
     12 C          63.7224   89.6639   13.9377 C.ar    1  UNL1        0.0223
     13 C          64.4895   90.7468   14.6371 C.ar    1  UNL1        0.0390
     14 C          64.9325   91.9623   13.8779 C.ar    1  UNL1        0.1454
     15 C          64.6085   92.0949   12.4193 C.ar    1  UNL1        0.0390
     16 C          63.8415   91.0121   11.7199 C.ar    1  UNL1        0.0223
     17 O          65.6996   93.0451   14.5773 O.3     1  UNL1       -0.4533
     18 C          67.1965   92.9791   14.6463 C.ar    1  UNL1        0.1507
     19 C          67.9525   92.0927   13.7014 C.ar    1  UNL1        0.0583
     20 C          69.4495   92.0266   13.7704 C.ar    1  UNL1        0.1044
     21 N          70.1904   92.8470   14.7843 N.ar    1  UNL1       -0.2163
     22 C          69.4345   93.7333   15.7292 C.ar    1  UNL1        0.2254
     23 F          70.1754   94.5536   16.7431 F       1  UNL1       -0.1831
     24 C          67.9375   93.7994   15.6602 C.ar    1  UNL1        0.0871
     25 C          63.1479   83.0187   13.5963 C.3     1  UNL1        0.1205
     26 C          64.8274   81.0368   13.5588 C.3     1  UNL1        0.0079
     27 C          64.0113   82.0620   12.8287 C.3     1  UNL1        0.0594
     28 C          64.0587   82.1305   11.3310 C.2     1  UNL1        0.0519
     29 O          64.9055   83.1671   10.6540 O.co2   1  UNL1       -0.5491
     30 O          63.2593   81.1623   10.5103 O.co2   1  UNL1       -0.5491
     31 C          61.0973   86.5482   10.3809 C.3     1  UNL1        0.1401
     32 C          61.3480   85.9422    9.0318 C.ar    1  UNL1        0.0007
     33 C          62.7186   85.4486    8.6743 C.ar    1  UNL1       -0.0015
     34 C          62.9692   84.8427    7.3251 C.ar    1  UNL1        0.0111
     35 C          61.8493   84.7304    6.3336 C.ar    1  UNL1        0.0577
     36 CL         62.1000   84.1245    4.9846 Cl      1  UNL1       -0.0822
     37 C          60.4787   85.2240    6.6912 C.ar    1  UNL1        0.0111
     38 C          60.2281   85.8299    8.0402 C.ar    1  UNL1       -0.0015
@<TRIPOS>UNITY_ATOM_ATTR
29 1
charge -1
@<TRIPOS>BOND
     1    27    26    1
     2    27    25    1
     3    25     1    1
     4     1     2   ar
     5     2     3    2
     6     2     4   ar
     7     4     5   ar
     8     5     6    2
     9     6    11    1
    10    11    12   ar
    11    12    13   ar
    12    13    14   ar
    13    14    17    1
    14    17    18    1
    15    18    19   ar
    16    19    20   ar
    17    20    21   ar
    18    21    22   ar
    19    22    23    1
    20    22    24   ar
    21    14    15   ar
    22    15    16   ar
    23     5     7   ar
    24     7    31    1
    25    31    32    1
    26    32    33   ar
    27    33    34   ar
    28    34    35   ar
    29    35    36    1
    30    35    37   ar
    31    37    38   ar
    32     7     8   ar
    33     8     9    2
    34    27    28    1
    35    28    29   ar
    36    28    30   ar
    37     8     1   ar
    38    16    11   ar
    39    38    32   ar
    40    24    18   ar
    41     4    10    1
@<TRIPOS>MOLECULE
*****
 38 41 0 0 0
SMALL
GASTEIGER

@<TRIPOS>ATOM
      1 N          58.6140   93.9691   -1.1832 N.ar    1  UNL1       -0.2340
      2 C          58.2795   92.7862   -0.3236 C.ar    1  UNL1        0.3338
      3 O          57.4389   91.6726   -0.8744 O.2     1  UNL1       -0.2463
      4 N          58.7856   92.7170    1.0867 N.ar    1  UNL1       -0.2776
      5 C          59.6261   93.8305    1.6375 C.ar    1  UNL1        0.2175
      6 N          60.1322   93.7612    3.0479 N.2     1  UNL1       -0.2128
      7 N          59.9607   95.0134    0.7779 N.ar    1  UNL1       -0.2479
      8 C          59.4546   95.0826   -0.6324 C.ar    1  UNL1        0.3373
      9 O          59.7892   96.2656   -1.4920 O.2     1  UNL1       -0.2461
     10 H          58.5660   91.9406    1.6509 H       1  UNL1        0.1733
     11 C          59.7977   92.5784    3.9075 C.ar    1  UNL1        0.0846
     12 C          60.8764   91.6202    4.3174 C.ar    1  UNL1        0.0223
     13 C          60.5418   90.4373    5.1771 C.ar    1  UNL1        0.0390
     14 C          59.1286   90.2127    5.6267 C.ar    1  UNL1        0.1454
     15 C          58.0498   91.1709    5.2167 C.ar    1  UNL1        0.0390
     16 C          58.3844   92.3538    4.3572 C.ar    1  UNL1        0.0223
     17 O          58.7940   89.0298    6.4863 O.3     1  UNL1       -0.4533
     18 C          59.6707   88.6774    7.6514 C.ar    1  UNL1        0.1507
     19 C          60.0234   87.2441    7.9181 C.ar    1  UNL1        0.0583
     20 C          60.9000   86.8917    9.0832 C.ar    1  UNL1        0.1044
     21 N          61.4240   87.9728    9.9815 N.ar    1  UNL1       -0.2163
     22 C          61.0713   89.4061    9.7147 C.ar    1  UNL1        0.2254
     23 F          61.5952   90.4870   10.6130 F       1  UNL1       -0.1831
     24 C          60.1946   89.7584    8.5497 C.ar    1  UNL1        0.0871
     25 C          58.1080   94.0384   -2.5936 C.3     1  UNL1        0.1205
     26 C          56.6944   95.4694   -4.2379 C.3     1  UNL1        0.0079
     27 C          56.8549   94.8021   -2.9041 C.3     1  UNL1        0.0594
     28 C          55.7623   94.8984   -1.8809 C.2     1  UNL1        0.0519
     29 O          54.8944   93.7087   -1.5962 O.co2   1  UNL1       -0.5491
     30 O          55.5377   96.1847   -1.1424 O.co2   1  UNL1       -0.5491
     31 C          60.8013   96.1270    1.3287 C.3     1  UNL1        0.1401
     32 C          62.2169   96.2987    0.8636 C.ar    1  UNL1        0.0007
     33 C          63.3519   96.0868    1.8212 C.ar    1  UNL1       -0.0015
     34 C          64.7676   96.2585    1.3560 C.ar    1  UNL1        0.0111
     35 C          65.0484   96.6420   -0.0667 C.ar    1  UNL1        0.0577
     36 CL         66.4640   96.8136   -0.5317 Cl      1  UNL1       -0.0822
     37 C          63.9134   96.8538   -1.0243 C.ar    1  UNL1        0.0111
     38 C          62.4977   96.6822   -0.5592 C.ar    1  UNL1       -0.0015
@<TRIPOS>UNITY_ATOM_ATTR
29 1
charge -1
@<TRIPOS>BOND
     1    27    26    1
     2    27    25    1
     3    25     1    1
     4     1     2   ar
     5     2     3    2
     6     2     4   ar
     7     4     5   ar
     8     5     6    2
     9     6    11    1
    10    11    12   ar
    11    12    13   ar
    12    13    14   ar
    13    14    17    1
    14    17    18    1
    15    18    19   ar
    16    19    20   ar
    17    20    21   ar
    18    21    22   ar
    19    22    23    1
    20    22    24   ar
    21    14    15   ar
    22    15    16   ar
    23     5     7   ar
    24     7    31    1
    25    31    32    1
    26    32    33   ar
    27    33    34   ar
    28    34    35   ar
    29    35    36    1
    30    35    37   ar
    31    37    38   ar
    32     7     8   ar
    33     8     9    2
    34    27    28    1
    35    28    29   ar
    36    28    30   ar
    37     8     1   ar
    38    16    11   ar
    39    38    32   ar
    40    24    18   ar
    41     4    10    1
@<TRIPOS>MOLECULE
*****
 38 41 0 0 0
SMALL
GASTEIGER

@<TRIPOS>ATOM
      1 N          63.2516   93.7822    0.8469 N.ar    1  UNL1       -0.2340
      2 C          63.1350   92.6804    1.8581 C.ar    1  UNL1        0.3338
      3 O          64.2987   91.7682    2.1108 O.2     1  UNL1       -0.2463
      4 N          61.8549   92.4908    2.6165 N.ar    1  UNL1       -0.2776
      5 C          60.6913   93.4030    2.3637 C.ar    1  UNL1        0.2175
      6 N          59.4111   93.2134    3.1221 N.2     1  UNL1       -0.2128
      7 N          60.8078   94.5048    1.3526 N.ar    1  UNL1       -0.2479
      8 C          62.0880   94.6944    0.5942 C.ar    1  UNL1        0.3373
      9 O          62.2046   95.7963   -0.4170 O.2     1  UNL1       -0.2461
     10 H          61.7784   91.7677    3.2801 H       1  UNL1        0.1733
     11 C          59.2945   92.1116    4.1333 C.ar    1  UNL1        0.0846
     12 C          57.9470   91.7183    4.6620 C.ar    1  UNL1        0.0223
     13 C          57.8304   90.6165    5.6732 C.ar    1  UNL1        0.0390
     14 C          59.0614   89.9079    6.1556 C.ar    1  UNL1        0.1454
     15 C          60.4089   90.3012    5.6268 C.ar    1  UNL1        0.0390
     16 C          60.5255   91.4030    4.6157 C.ar    1  UNL1        0.0223
     17 O          58.9448   88.8061    7.1667 O.3     1  UNL1       -0.4533
     18 C          59.9750   88.6687    8.2483 C.ar    1  UNL1        0.1507
     19 C          60.7460   87.3899    8.3916 C.ar    1  UNL1        0.0583
     20 C          61.7762   87.2525    9.4732 C.ar    1  UNL1        0.1044
     21 N          62.0355   88.3938   10.4114 N.ar    1  UNL1       -0.2163
     22 C          61.2645   89.6725   10.2680 C.ar    1  UNL1        0.2254
     23 F          61.5238   90.8137   11.2063 F       1  UNL1       -0.1831
     24 C          60.2343   89.8099    9.1865 C.ar    1  UNL1        0.0871
     25 C          64.5318   93.9718    0.0885 C.3     1  UNL1        0.1205
     26 C          65.1940   96.1554   -1.1540 C.3     1  UNL1        0.0079
     27 C          64.5475   94.8018   -1.1608 C.3     1  UNL1        0.0594
     28 C          63.9168   94.2783   -2.4170 C.2     1  UNL1        0.0519
     29 O          63.9506   92.8090   -2.7172 O.co2   1  UNL1       -0.5491
     30 O          63.2522   95.2241   -3.3730 O.co2   1  UNL1       -0.5491
     31 C          59.6442   95.4171    1.0999 C.3     1  UNL1        0.1401
     32 C          58.6738   95.1074   -0.0012 C.ar    1  UNL1        0.0007
     33 C          57.9962   96.2234   -0.7397 C.ar    1  UNL1       -0.0015
     34 C          57.0257   95.9137   -1.8408 C.ar    1  UNL1        0.0111
     35 C          56.7329   94.4880   -2.2033 C.ar    1  UNL1        0.0577
     36 CL         55.7624   94.1783   -3.3043 Cl      1  UNL1       -0.0822
     37 C          57.4104   93.3719   -1.4648 C.ar    1  UNL1        0.0111
     38 C          58.3808   93.6816   -0.3638 C.ar    1  UNL1       -0.0015
@<TRIPOS>UNITY_ATOM_ATTR
29 1
charge -1
@<TRIPOS>BOND
     1    27    26    1
     2    27    25    1
     3    25     1    1
     4     1     2   ar
     5     2     3    2
     6     2     4   ar
     7     4     5   ar
     8     5     6    2
     9     6    11    1
    10    11    12   ar
    11    12    13   ar
    12    13    14   ar
    13    14    17    1
    14    17    18    1
    15    18    19   ar
    16    19    20   ar
    17    20    21   ar
    18    21    22   ar
    19    22    23    1
    20    22    24   ar
    21    14    15   ar
    22    15    16   ar
    23     5     7   ar
    24     7    31    1
    25    31    32    1
    26    32    33   ar
    27    33    34   ar
    28    34    35   ar
    29    35    36    1
    30    35    37   ar
    31    37    38   ar
    32     7     8   ar
    33     8     9    2
    34    27    28    1
    35    28    29   ar
    36    28    30   ar
    37     8     1   ar
    38    16    11   ar
    39    38    32   ar
    40    24    18   ar
    41     4    10    1
@<TRIPOS>MOLECULE
*****
 38 41 0 0 0
SMALL
GASTEIGER

@<TRIPOS>ATOM
      1 N          63.6676   83.9632   12.6467 N.ar    1  UNL1       -0.2340
      2 C          64.3948   84.9538   13.5069 C.ar    1  UNL1        0.3338
      3 O          65.4472   84.4836   14.4667 O.2     1  UNL1       -0.2463
      4 N          64.0695   86.4148   13.4072 N.ar    1  UNL1       -0.2776
      5 C          63.0171   86.8851   12.4475 C.ar    1  UNL1        0.2175
      6 N          62.6918   88.3460   12.3479 N.2     1  UNL1       -0.2128
      7 N          62.2900   85.8945   11.5873 N.ar    1  UNL1       -0.2479
      8 C          62.6152   84.4335   11.6869 C.ar    1  UNL1        0.3373
      9 O          61.8880   83.4429   10.8267 O.2     1  UNL1       -0.2461
     10 H          64.5468   87.0649   13.9718 H       1  UNL1        0.1733
     11 C          63.4190   89.3366   13.2080 C.ar    1  UNL1        0.0846
     12 C          64.0526   90.5462   12.5872 C.ar    1  UNL1        0.0223
     13 C          64.7798   91.5368   13.4475 C.ar    1  UNL1        0.0390
     14 C          64.8733   91.3178   14.9284 C.ar    1  UNL1        0.1454
     15 C          64.2396   90.1083   15.5492 C.ar    1  UNL1        0.0390
     16 C          63.5124   89.1177   14.6891 C.ar    1  UNL1        0.0223
     17 O          65.6004   92.3085   15.7887 O.3     1  UNL1       -0.4533
     18 C          67.0329   92.6453   15.4977 C.ar    1  UNL1        0.1507
     19 C          67.7278   93.7134   16.2891 C.ar    1  UNL1        0.0583
     20 C          69.1603   94.0503   15.9981 C.ar    1  UNL1        0.1044
     21 N          69.8977   93.3190   14.9158 N.ar    1  UNL1       -0.2163
     22 C          69.2028   92.2509   14.1244 C.ar    1  UNL1        0.2254
     23 F          69.9402   91.5197   13.0422 F       1  UNL1       -0.1831
     24 C          67.7703   91.9141   14.4154 C.ar    1  UNL1        0.0871
     25 C          63.9929   82.5023   12.7463 C.3     1  UNL1        0.1205
     26 C          62.7260   80.2788   12.2980 C.3     1  UNL1        0.0079
     27 C          62.9227   81.5193   13.1181 C.3     1  UNL1        0.0594
     28 C          62.0491   81.7768   14.3100 C.2     1  UNL1        0.0519
     29 O          62.5120   82.7063   15.3924 O.co2   1  UNL1       -0.5491
     30 O          60.7125   81.1046   14.4194 O.co2   1  UNL1       -0.5491
     31 C          61.2375   86.3647   10.6275 C.3     1  UNL1        0.1401
     32 C          60.5800   87.6977   10.8294 C.ar    1  UNL1        0.0007
     33 C          59.7183   87.9342   12.0342 C.ar    1  UNL1       -0.0015
     34 C          59.0608   89.2673   12.2361 C.ar    1  UNL1        0.0111
     35 C          59.2651   90.3638   11.2332 C.ar    1  UNL1        0.0577
     36 CL         58.6076   91.6968   11.4351 Cl      1  UNL1       -0.0822
     37 C          60.1268   90.1274   10.0284 C.ar    1  UNL1        0.0111
     38 C          60.7843   88.7944    9.8265 C.ar    1  UNL1       -0.0015
@<TRIPOS>UNITY_ATOM_ATTR
29 1
charge -1
@<TRIPOS>BOND
     1    27    26    1
     2    27    25    1
     3    25     1    1
     4     1     2   ar
     5     2     3    2
     6     2     4   ar
     7     4     5   ar
     8     5     6    2
     9     6    11    1
    10    11    12   ar
    11    12    13   ar
    12    13    14   ar
    13    14    17    1
    14    17    18    1
    15    18    19   ar
    16    19    20   ar
    17    20    21   ar
    18    21    22   ar
    19    22    23    1
    20    22    24   ar
    21    14    15   ar
    22    15    16   ar
    23     5     7   ar
    24     7    31    1
    25    31    32    1
    26    32    33   ar
    27    33    34   ar
    28    34    35   ar
    29    35    36    1
    30    35    37   ar
    31    37    38   ar
    32     7     8   ar
    33     8     9    2
    34    27    28    1
    35    28    29   ar
    36    28    30   ar
    37     8     1   ar
    38    16    11   ar
    39    38    32   ar
    40    24    18   ar
    41     4    10    1
