@<TRIPOS>MOLECULE
*****
 30 32 0 0 0
SMALL
GASTEIGER

@<TRIPOS>ATOM
      1 C          65.0679   90.6469   14.4682 C.ar    1  UNL1        0.1751
      2 C          64.9808   89.1831   14.7840 C.ar    1  UNL1        0.0360
      3 C          64.2155   88.2646   13.8781 C.ar    1  UNL1       -0.0160
      4 C          63.5372   88.8099   12.6564 C.ar    1  UNL1        0.0330
      5 C          63.6242   90.2736   12.3406 C.ar    1  UNL1        0.1750
      6 C          64.3896   91.1922   13.2465 C.ar    1  UNL1        0.2060
      7 C          62.7295   88.0745   11.6284 C.ar    1  UNL1        0.0005
      8 C          62.3320   89.1626   10.6754 C.ar    1  UNL1        0.0030
      9 C          61.5073   89.0571    9.4268 C.ar    1  UNL1        0.0402
     10 C          60.8766   87.8375    8.8229 C.ar    1  UNL1        0.1774
     11 C          60.9147   86.4222    9.3183 C.ar    1  UNL1        0.2290
     12 O          60.1771   85.4196    8.4813 O.2     1  UNL1       -0.2833
     13 C          61.5930   85.8769   10.5400 C.ar    1  UNL1        0.0425
     14 C          62.4007   86.6123   11.5681 C.ar    1  UNL1       -0.0011
     15 C          62.7982   85.5242   12.5210 C.3     1  UNL1        0.0945
     16 C          63.6228   85.6297   13.7695 C.3     1  UNL1        0.0288
     17 C          64.2535   86.8492   14.3735 C.3     1  UNL1        0.0286
     18 N          62.3061   84.1488   12.1803 N.am    1  UNL1       -0.3022
     19 C          63.2849   83.0667   11.8325 C.2     1  UNL1        0.2232
     20 C          62.7928   81.6913   11.4918 C.3     1  UNL1        0.0946
     21 O          64.7560   83.3601   11.8253 O.2     1  UNL1       -0.2751
     22 H          61.3406   83.9562   12.1851 H       1  UNL1        0.1497
     23 C          67.3240   91.6726   15.2477 C.3     1  UNL1        0.2526
     24 O          65.8332   91.5654   15.3741 O.3     1  UNL1       -0.4683
     25 O          62.9460   90.8189   11.1189 O.3     1  UNL1       -0.4683
     26 C          63.7130   91.6732   10.1535 C.3     1  UNL1        0.2526
     27 O          64.4766   92.6559   12.9306 O.3     1  UNL1       -0.4654
     28 C          65.7517   93.2320   12.3898 C.3     1  UNL1        0.2528
     29 O          60.1059   88.0631    7.5560 O.3     1  UNL1       -0.4682
     30 C          59.4549   89.3901    7.3002 C.3     1  UNL1        0.2526
@<TRIPOS>BOND
     1    23    24    1
     2    24     1    1
     3     1     2   ar
     4     2     3   ar
     5     3     4   ar
     6     4     5   ar
     7     5    25    1
     8    25    26    1
     9     5     6   ar
    10     6    27    1
    11    27    28    1
    12     4     7    1
    13     7     8   ar
    14     8     9   ar
    15     9    10   ar
    16    10    29    1
    17    29    30    1
    18    10    11   ar
    19    11    12    2
    20    11    13   ar
    21    13    14   ar
    22    14    15    1
    23    15    18    1
    24    18    19   am
    25    19    20    1
    26    19    21    2
    27    15    16    1
    28    16    17    1
    29     6     1   ar
    30    14     7   ar
    31    17     3    1
    32    18    22    1
@<TRIPOS>MOLECULE
*****
 30 32 0 0 0
SMALL
GASTEIGER

@<TRIPOS>ATOM
      1 C          63.6360   82.2637   13.4602 C.ar    1  UNL1        0.1751
      2 C          64.1983   83.2760   14.4137 C.ar    1  UNL1        0.0360
      3 C          64.0626   84.7404   14.1190 C.ar    1  UNL1       -0.0160
      4 C          63.3644   85.1927   12.8708 C.ar    1  UNL1        0.0330
      5 C          62.8021   84.1805   11.9173 C.ar    1  UNL1        0.1750
      6 C          62.9379   82.7160   12.2120 C.ar    1  UNL1        0.2060
      7 C          63.1217   86.5927   12.3899 C.ar    1  UNL1        0.0005
      8 C          62.3859   86.3797   11.1002 C.ar    1  UNL1        0.0030
      9 C          61.8637   87.4077   10.1406 C.ar    1  UNL1        0.0402
     10 C          61.9485   88.9023   10.2337 C.ar    1  UNL1        0.1774
     11 C          62.5763   89.7383   11.3094 C.ar    1  UNL1        0.2290
     12 O          62.4953   91.2228   11.1105 O.2     1  UNL1       -0.2833
     13 C          63.2744   89.2860   12.5576 C.ar    1  UNL1        0.0425
     14 C          63.5171   87.8861   13.0384 C.ar    1  UNL1       -0.0011
     15 C          64.2530   88.0990   14.3281 C.3     1  UNL1        0.0945
     16 C          64.7751   87.0711   15.2877 C.3     1  UNL1        0.0288
     17 C          64.6904   85.5765   15.1946 C.3     1  UNL1        0.0286
     18 N          64.4993   89.5290   14.7085 N.am    1  UNL1       -0.3022
     19 C          63.6416   90.1868   15.7485 C.2     1  UNL1        0.2232
     20 C          63.8879   91.6167   16.1288 C.3     1  UNL1        0.0946
     21 O          62.5376   89.4147   16.4081 O.2     1  UNL1       -0.2751
     22 H          65.2239   90.0357   14.2756 H       1  UNL1        0.1497
     23 C          62.5481   79.9372   13.8520 C.3     1  UNL1        0.2526
     24 O          63.7718   80.7993   13.7549 O.3     1  UNL1       -0.4683
     25 O          62.1040   84.6328   10.6690 O.3     1  UNL1       -0.4683
     26 C          62.7329   84.3918    9.3287 C.3     1  UNL1        0.2526
     27 O          62.3755   81.7038   11.2585 O.3     1  UNL1       -0.4654
     28 C          63.2954   80.9093   10.3795 C.3     1  UNL1        0.2528
     29 O          61.3227   89.6614    9.1014 O.3     1  UNL1       -0.4682
     30 C          60.1292   89.0972    8.3891 C.3     1  UNL1        0.2526
@<TRIPOS>BOND
     1    23    24    1
     2    24     1    1
     3     1     2   ar
     4     2     3   ar
     5     3     4   ar
     6     4     5   ar
     7     5    25    1
     8    25    26    1
     9     5     6   ar
    10     6    27    1
    11    27    28    1
    12     4     7    1
    13     7     8   ar
    14     8     9   ar
    15     9    10   ar
    16    10    29    1
    17    29    30    1
    18    10    11   ar
    19    11    12    2
    20    11    13   ar
    21    13    14   ar
    22    14    15    1
    23    15    18    1
    24    18    19   am
    25    19    20    1
    26    19    21    2
    27    15    16    1
    28    16    17    1
    29     6     1   ar
    30    14     7   ar
    31    17     3    1
    32    18    22    1
@<TRIPOS>MOLECULE
*****
 30 32 0 0 0
SMALL
GASTEIGER

@<TRIPOS>ATOM
      1 C          60.0154   88.5122    8.0891 C.ar    1  UNL1        0.1751
      2 C          60.5679   89.6680    8.8694 C.ar    1  UNL1        0.0360
      3 C          61.4206   89.4179   10.0779 C.ar    1  UNL1       -0.0160
      4 C          61.7207   88.0120   10.5060 C.ar    1  UNL1        0.0330
      5 C          61.1682   86.8562    9.7257 C.ar    1  UNL1        0.1750
      6 C          60.3155   87.1063    8.5172 C.ar    1  UNL1        0.2060
      7 C          62.5422   87.5442   11.6707 C.ar    1  UNL1        0.0005
      8 C          62.4606   86.0506   11.5582 C.ar    1  UNL1        0.0030
      9 C          63.0830   85.0108   12.4422 C.ar    1  UNL1        0.0402
     10 C          63.9407   85.2077   13.6569 C.ar    1  UNL1        0.1774
     11 C          64.3879   86.4931   14.2877 C.ar    1  UNL1        0.2290
     12 O          65.2490   86.3542   15.5079 O.2     1  UNL1       -0.2833
     13 C          64.0877   87.8990   13.8595 C.ar    1  UNL1        0.0425
     14 C          63.2663   88.3667   12.6949 C.ar    1  UNL1       -0.0011
     15 C          63.3479   89.8604   12.8073 C.3     1  UNL1        0.0945
     16 C          62.7254   90.9001   11.9234 C.3     1  UNL1        0.0288
     17 C          61.8677   90.7032   10.7087 C.3     1  UNL1        0.0286
     18 N          64.1592   90.3832   13.9556 N.am    1  UNL1       -0.3022
     19 C          65.2538   91.3785   13.7087 C.2     1  UNL1        0.2232
     20 C          66.0651   91.9014   14.8569 C.3     1  UNL1        0.0946
     21 O          65.5372   91.8511   12.3135 O.2     1  UNL1       -0.2751
     22 H          63.9731   90.0731   14.8713 H       1  UNL1        0.1497
     23 C          59.3897   89.9857    6.0429 C.3     1  UNL1        0.2526
     24 O          59.1627   88.7624    6.8806 O.3     1  UNL1       -0.4683
     25 O          61.4684   85.4503   10.1539 O.3     1  UNL1       -0.4683
     26 C          62.4622   84.6288    9.3873 C.3     1  UNL1        0.2526
     27 O          59.7630   85.9505    7.7369 O.3     1  UNL1       -0.4654
     28 C          60.6528   85.1791    6.8078 C.3     1  UNL1        0.2528
     29 O          64.4139   83.9534   14.3298 O.3     1  UNL1       -0.4682
     30 C          63.4391   83.0853   15.0690 C.3     1  UNL1        0.2526
@<TRIPOS>BOND
     1    23    24    1
     2    24     1    1
     3     1     2   ar
     4     2     3   ar
     5     3     4   ar
     6     4     5   ar
     7     5    25    1
     8    25    26    1
     9     5     6   ar
    10     6    27    1
    11    27    28    1
    12     4     7    1
    13     7     8   ar
    14     8     9   ar
    15     9    10   ar
    16    10    29    1
    17    29    30    1
    18    10    11   ar
    19    11    12    2
    20    11    13   ar
    21    13    14   ar
    22    14    15    1
    23    15    18    1
    24    18    19   am
    25    19    20    1
    26    19    21    2
    27    15    16    1
    28    16    17    1
    29     6     1   ar
    30    14     7   ar
    31    17     3    1
    32    18    22    1
@<TRIPOS>MOLECULE
*****
 30 32 0 0 0
SMALL
GASTEIGER

@<TRIPOS>ATOM
      1 C          63.0556   82.8611   12.9149 C.ar    1  UNL1        0.1751
      2 C          62.4049   83.1778   11.6010 C.ar    1  UNL1        0.0360
      3 C          62.2887   84.6023   11.1456 C.ar    1  UNL1       -0.0160
      4 C          62.8232   85.7101   12.0041 C.ar    1  UNL1        0.0330
      5 C          63.4739   85.3935   13.3180 C.ar    1  UNL1        0.1750
      6 C          63.5901   83.9690   13.7734 C.ar    1  UNL1        0.2060
      7 C          62.8103   87.1867   11.7407 C.ar    1  UNL1        0.0005
      8 C          63.4840   87.7487   12.9574 C.ar    1  UNL1        0.0030
      9 C          63.7735   89.1831   13.2877 C.ar    1  UNL1        0.0402
     10 C          63.4608   90.4095   12.4828 C.ar    1  UNL1        0.1774
     11 C          62.7813   90.5047   11.1489 C.ar    1  UNL1        0.2290
     12 O          62.6144   91.8910   10.6011 O.2     1  UNL1       -0.2833
     13 C          62.2468   89.3969   10.2904 C.ar    1  UNL1        0.0425
     14 C          62.2598   87.9203   10.5539 C.ar    1  UNL1       -0.0011
     15 C          61.5860   87.3583    9.3371 C.3     1  UNL1        0.0945
     16 C          61.2966   85.9240    9.0069 C.3     1  UNL1        0.0288
     17 C          61.6093   84.6975    9.8117 C.3     1  UNL1        0.0286
     18 N          61.1433   88.3635    8.3156 N.am    1  UNL1       -0.3022
     19 C          59.7381   88.3315    7.7919 C.2     1  UNL1        0.2232
     20 C          59.2953   89.3368    6.7703 C.3     1  UNL1        0.0946
     21 O          58.7755   87.2943    8.2896 O.2     1  UNL1       -0.2751
     22 H          61.7750   89.0443    7.9889 H       1  UNL1        0.1497
     23 C          61.9529   80.6960   13.8347 C.3     1  UNL1        0.2526
     24 O          63.1718   81.4367   13.3703 O.3     1  UNL1       -0.4683
     25 O          64.0084   86.5013   14.1765 O.3     1  UNL1       -0.4683
     26 C          65.2482   86.2859   14.9931 C.3     1  UNL1        0.2526
     27 O          64.2408   83.6524   15.0873 O.3     1  UNL1       -0.4654
     28 C          63.4530   83.7587   16.3593 C.3     1  UNL1        0.2528
     29 O          63.8834   91.7132   13.0925 O.3     1  UNL1       -0.4682
     30 C          65.3001   92.1846   12.9480 C.3     1  UNL1        0.2526
@<TRIPOS>BOND
     1    23    24    1
     2    24     1    1
     3     1     2   ar
     4     2     3   ar
     5     3     4   ar
     6     4     5   ar
     7     5    25    1
     8    25    26    1
     9     5     6   ar
    10     6    27    1
    11    27    28    1
    12     4     7    1
    13     7     8   ar
    14     8     9   ar
    15     9    10   ar
    16    10    29    1
    17    29    30    1
    18    10    11   ar
    19    11    12    2
    20    11    13   ar
    21    13    14   ar
    22    14    15    1
    23    15    18    1
    24    18    19   am
    25    19    20    1
    26    19    21    2
    27    15    16    1
    28    16    17    1
    29     6     1   ar
    30    14     7   ar
    31    17     3    1
    32    18    22    1
@<TRIPOS>MOLECULE
*****
 30 32 0 0 0
SMALL
GASTEIGER

@<TRIPOS>ATOM
      1 C          63.3739   89.8914   13.8906 C.ar    1  UNL1        0.1751
      2 C          63.0117   89.7720   12.4399 C.ar    1  UNL1        0.0360
      3 C          62.9541   88.4213   11.7899 C.ar    1  UNL1       -0.0160
      4 C          63.2587   87.1901   12.5907 C.ar    1  UNL1        0.0330
      5 C          63.6209   87.3095   14.0414 C.ar    1  UNL1        0.1750
      6 C          63.6785   88.6601   14.6914 C.ar    1  UNL1        0.2060
      7 C          63.2591   85.7588   12.1417 C.ar    1  UNL1        0.0005
      8 C          63.6387   85.0178   13.3895 C.ar    1  UNL1        0.0030
      9 C          63.8080   83.5401   13.5847 C.ar    1  UNL1        0.0402
     10 C          63.6394   82.4388   12.5805 C.ar    1  UNL1        0.1774
     11 C          63.2600   82.5429   11.1330 C.ar    1  UNL1        0.2290
     12 O          63.1738   81.2440   10.3877 O.2     1  UNL1       -0.2833
     13 C          62.9554   83.7741   10.3322 C.ar    1  UNL1        0.0425
     14 C          62.9550   85.2054   10.7812 C.ar    1  UNL1       -0.0011
     15 C          62.5754   85.9464    9.5335 C.3     1  UNL1        0.0945
     16 C          62.4062   87.4240    9.3383 C.3     1  UNL1        0.0288
     17 C          62.5747   88.5254   10.3424 C.3     1  UNL1        0.0286
     18 N          62.3330   85.0977    8.3206 N.am    1  UNL1       -0.3022
     19 C          61.1423   85.3605    7.4471 C.2     1  UNL1        0.2232
     20 C          60.8999   84.5117    6.2343 C.3     1  UNL1        0.0946
     21 O          60.1939   86.4720    7.7864 O.2     1  UNL1       -0.2751
     22 H          62.9555   84.3682    8.0980 H       1  UNL1        0.1497
     23 C          64.7504   91.8103   14.9734 C.3     1  UNL1        0.2526
     24 O          63.4315   91.2420   14.5405 O.3     1  UNL1       -0.4683
     25 O          63.9255   86.0782   14.8421 O.3     1  UNL1       -0.4683
     26 C          63.4338   85.9614   16.2545 C.3     1  UNL1        0.2526
     27 O          64.0407   88.7795   16.1421 O.3     1  UNL1       -0.4654
     28 C          63.0185   89.2496   17.1341 C.3     1  UNL1        0.2528
     29 O          63.8825   81.0495   13.0913 O.3     1  UNL1       -0.4682
     30 C          62.7662   80.2807   13.7341 C.3     1  UNL1        0.2526
@<TRIPOS>BOND
     1    23    24    1
     2    24     1    1
     3     1     2   ar
     4     2     3   ar
     5     3     4   ar
     6     4     5   ar
     7     5    25    1
     8    25    26    1
     9     5     6   ar
    10     6    27    1
    11    27    28    1
    12     4     7    1
    13     7     8   ar
    14     8     9   ar
    15     9    10   ar
    16    10    29    1
    17    29    30    1
    18    10    11   ar
    19    11    12    2
    20    11    13   ar
    21    13    14   ar
    22    14    15    1
    23    15    18    1
    24    18    19   am
    25    19    20    1
    26    19    21    2
    27    15    16    1
    28    16    17    1
    29     6     1   ar
    30    14     7   ar
    31    17     3    1
    32    18    22    1
@<TRIPOS>MOLECULE
*****
 30 32 0 0 0
SMALL
GASTEIGER

@<TRIPOS>ATOM
      1 C          64.8911   92.3097   13.0340 C.ar    1  UNL1        0.1751
      2 C          64.1668   92.0067   11.7558 C.ar    1  UNL1        0.0360
      3 C          63.6363   90.6266   11.5034 C.ar    1  UNL1       -0.0160
      4 C          63.8300   89.5493   12.5291 C.ar    1  UNL1        0.0330
      5 C          64.5542   89.8523   13.8072 C.ar    1  UNL1        0.1750
      6 C          65.0848   91.2324   14.0597 C.ar    1  UNL1        0.2060
      7 C          63.3843   88.1180   12.4777 C.ar    1  UNL1        0.0005
      8 C          63.8732   87.5691   13.7853 C.ar    1  UNL1        0.0030
      9 C          63.7334   86.1769   14.3260 C.ar    1  UNL1        0.0402
     10 C          63.0703   84.9899   13.6927 C.ar    1  UNL1        0.1774
     11 C          62.3830   84.9017   12.3623 C.ar    1  UNL1        0.2290
     12 O          61.8144   83.5589   12.0112 O.2     1  UNL1       -0.2833
     13 C          62.1893   85.9790   11.3366 C.ar    1  UNL1        0.0425
     14 C          62.6350   87.4103   11.3880 C.ar    1  UNL1       -0.0011
     15 C          62.1461   87.9592   10.0804 C.3     1  UNL1        0.0945
     16 C          62.2859   89.3514    9.5397 C.3     1  UNL1        0.0288
     17 C          62.9491   90.5384   10.1730 C.3     1  UNL1        0.0286
     18 N          61.4216   86.9875    9.1967 N.am    1  UNL1       -0.3022
     19 C          60.1481   87.3965    8.5179 C.2     1  UNL1        0.2232
     20 C          59.4236   86.4248    7.6342 C.3     1  UNL1        0.0946
     21 O          59.5990   88.7774    8.7227 O.2     1  UNL1       -0.2751
     22 H          61.7820   86.0812    9.0623 H       1  UNL1        0.1497
     23 C          66.2362   94.3839   12.2354 C.3     1  UNL1        0.2526
     24 O          65.4216   93.6898   13.2864 O.3     1  UNL1       -0.4683
     25 O          64.7480   88.7751   14.8329 O.3     1  UNL1       -0.4683
     26 C          63.9381   88.7873   16.0955 C.3     1  UNL1        0.2526
     27 O          65.8091   91.5354   15.3378 O.3     1  UNL1       -0.4654
     28 C          67.2959   91.7338   15.3285 C.3     1  UNL1        0.2528
     29 O          63.0979   83.7235   14.4961 O.3     1  UNL1       -0.4682
     30 C          64.2324   82.7558   14.3322 C.3     1  UNL1        0.2526
@<TRIPOS>BOND
     1    23    24    1
     2    24     1    1
     3     1     2   ar
     4     2     3   ar
     5     3     4   ar
     6     4     5   ar
     7     5    25    1
     8    25    26    1
     9     5     6   ar
    10     6    27    1
    11    27    28    1
    12     4     7    1
    13     7     8   ar
    14     8     9   ar
    15     9    10   ar
    16    10    29    1
    17    29    30    1
    18    10    11   ar
    19    11    12    2
    20    11    13   ar
    21    13    14   ar
    22    14    15    1
    23    15    18    1
    24    18    19   am
    25    19    20    1
    26    19    21    2
    27    15    16    1
    28    16    17    1
    29     6     1   ar
    30    14     7   ar
    31    17     3    1
    32    18    22    1
@<TRIPOS>MOLECULE
*****
 30 32 0 0 0
SMALL
GASTEIGER

@<TRIPOS>ATOM
      1 C          62.3058   86.9737   11.8277 C.ar    1  UNL1        0.1751
      2 C          62.3181   88.0891   10.8248 C.ar    1  UNL1        0.0360
      3 C          63.0674   89.3546   11.1197 C.ar    1  UNL1       -0.0160
      4 C          63.8044   89.5047   12.4175 C.ar    1  UNL1        0.0330
      5 C          63.7922   88.3894   13.4203 C.ar    1  UNL1        0.1750
      6 C          63.0429   87.1238   13.1255 C.ar    1  UNL1        0.2060
      7 C          64.6077   90.6731   12.9070 C.ar    1  UNL1        0.0005
      8 C          65.0811   90.2119   14.2537 C.ar    1  UNL1        0.0030
      9 C          65.9360   90.9437   15.2456 C.ar    1  UNL1        0.0402
     10 C          66.5286   92.3171   15.1358 C.ar    1  UNL1        0.1774
     11 C          66.4128   93.2983   14.0071 C.ar    1  UNL1        0.2290
     12 O          67.1287   94.6019   14.2020 O.2     1  UNL1       -0.2833
     13 C          65.6757   93.1482   12.7094 C.ar    1  UNL1        0.0425
     14 C          64.8724   91.9798   12.2199 C.ar    1  UNL1       -0.0011
     15 C          64.3991   92.4411   10.8732 C.3     1  UNL1        0.0945
     16 C          63.5442   91.7093    9.8814 C.3     1  UNL1        0.0288
     17 C          62.9516   90.3358    9.9911 C.3     1  UNL1        0.0286
     18 N          64.8387   93.8157   10.4645 N.am    1  UNL1       -0.3022
     19 C          66.2037   94.0232    9.8782 C.2     1  UNL1        0.2232
     20 C          66.6434   95.3979    9.4695 C.3     1  UNL1        0.0946
     21 O          67.1291   92.8560    9.7007 O.2     1  UNL1       -0.2751
     22 H          64.2314   94.5817   10.5810 H       1  UNL1        0.1497
     23 C          62.2979   84.4865   11.0770 C.3     1  UNL1        0.2526
     24 O          61.5565   85.7082   11.5328 O.3     1  UNL1       -0.4683
     25 O          64.5293   88.5395   14.7181 O.3     1  UNL1       -0.4683
     26 C          63.8175   88.3011   16.0168 C.3     1  UNL1        0.2526
     27 O          63.0307   86.0084   14.1283 O.3     1  UNL1       -0.4654
     28 C          64.1748   85.0401   14.1871 C.3     1  UNL1        0.2528
     29 O          67.3450   92.7694   16.3101 O.3     1  UNL1       -0.4682
     30 C          68.8225   92.5117   16.3403 C.3     1  UNL1        0.2526
@<TRIPOS>BOND
     1    23    24    1
     2    24     1    1
     3     1     2   ar
     4     2     3   ar
     5     3     4   ar
     6     4     5   ar
     7     5    25    1
     8    25    26    1
     9     5     6   ar
    10     6    27    1
    11    27    28    1
    12     4     7    1
    13     7     8   ar
    14     8     9   ar
    15     9    10   ar
    16    10    29    1
    17    29    30    1
    18    10    11   ar
    19    11    12    2
    20    11    13   ar
    21    13    14   ar
    22    14    15    1
    23    15    18    1
    24    18    19   am
    25    19    20    1
    26    19    21    2
    27    15    16    1
    28    16    17    1
    29     6     1   ar
    30    14     7   ar
    31    17     3    1
    32    18    22    1
