@<TRIPOS>MOLECULE
*****
 20 22 0 0 0
SMALL
GASTEIGER

@<TRIPOS>ATOM
      1 C          62.6846   88.7539   11.6002 C.ar    1  UNL1        0.1654
      2 N          62.6781   87.2581   11.7120 N.ar    1  UNL1       -0.1925
      3 C          61.8445   86.4393   10.7714 C.ar    1  UNL1        0.2276
      4 C          61.0174   87.1164    9.7189 C.ar    1  UNL1        0.0709
      5 C          60.1839   86.2976    8.7783 C.ar    1  UNL1        0.0062
      6 C          59.3568   86.9747    7.7259 C.ar    1  UNL1        0.0003
      7 C          59.3634   88.4705    7.6141 C.ar    1  UNL1        0.0015
      8 C          60.1969   89.2893    8.5547 C.ar    1  UNL1        0.0193
      9 C          61.0240   88.6122    9.6071 C.ar    1  UNL1        0.0874
     10 N          61.8576   89.4310   10.5478 N.ar    1  UNL1       -0.2263
     11 C          64.8363   91.7489   13.0665 C.ar    1  UNL1        0.1388
     12 C          65.1854   91.2100   14.4222 C.ar    1  UNL1        0.0369
     13 C          64.7008   89.8525   14.8372 C.ar    1  UNL1        0.0032
     14 C          63.8673   89.0338   13.8965 C.ar    1  UNL1        0.0032
     15 C          63.5182   89.5727   12.5409 C.ar    1  UNL1        0.0389
     16 C          64.0027   90.9302   12.1259 C.ar    1  UNL1        0.0399
     17 C          66.4557   93.7551   13.3874 C.3     1  UNL1        0.2525
     18 O          65.3209   93.1065   12.6515 O.3     1  UNL1       -0.4714
     19 O          61.8380   84.9435   10.8832 O.3     1  UNL1       -0.4561
     20 C          62.6477   84.2676   11.9497 C.3     1  UNL1        0.2542
@<TRIPOS>BOND
     1    17    18    1
     2    18    11    1
     3    11    12   ar
     4    12    13   ar
     5    13    14   ar
     6    14    15   ar
     7    15     1    1
     8     1     2   ar
     9     2     3   ar
    10     3    19    1
    11    19    20    1
    12     3     4   ar
    13     4     5   ar
    14     5     6   ar
    15     6     7   ar
    16     7     8   ar
    17     8     9   ar
    18     9    10   ar
    19    15    16   ar
    20    16    11   ar
    21    10     1   ar
    22     9     4   ar
@<TRIPOS>MOLECULE
*****
 20 22 0 0 0
SMALL
GASTEIGER

@<TRIPOS>ATOM
      1 C          62.3099   85.9716   11.5341 C.ar    1  UNL1        0.1654
      2 N          62.6133   87.4058   11.8517 N.ar    1  UNL1       -0.1925
      3 C          62.0232   88.5007   11.0132 C.ar    1  UNL1        0.2276
      4 C          61.1297   88.1613    9.8570 C.ar    1  UNL1        0.0709
      5 C          60.5397   89.2562    9.0186 C.ar    1  UNL1        0.0062
      6 C          59.6463   88.9168    7.8625 C.ar    1  UNL1        0.0003
      7 C          59.3429   87.4825    7.5449 C.ar    1  UNL1        0.0015
      8 C          59.9330   86.3877    8.3834 C.ar    1  UNL1        0.0193
      9 C          60.8264   86.7271    9.5394 C.ar    1  UNL1        0.0874
     10 N          61.4165   85.6322   10.3780 N.ar    1  UNL1       -0.2263
     11 C          63.2724   82.3470   12.8324 C.ar    1  UNL1        0.1388
     12 C          64.0802   82.6871   14.0497 C.ar    1  UNL1        0.0369
     13 C          64.2980   84.1221   14.4284 C.ar    1  UNL1        0.0032
     14 C          63.7079   85.2169   13.5898 C.ar    1  UNL1        0.0032
     15 C          62.9000   84.8767   12.3726 C.ar    1  UNL1        0.0389
     16 C          62.6823   83.4418   11.9939 C.ar    1  UNL1        0.0399
     17 C          62.2622   80.0107   13.3537 C.3     1  UNL1        0.2525
     18 O          63.0546   80.9119   12.4538 O.3     1  UNL1       -0.4714
     19 O          62.3266   89.9350   11.3308 O.3     1  UNL1       -0.4561
     20 C          63.3778   90.2721   12.3463 C.3     1  UNL1        0.2542
@<TRIPOS>BOND
     1    17    18    1
     2    18    11    1
     3    11    12   ar
     4    12    13   ar
     5    13    14   ar
     6    14    15   ar
     7    15     1    1
     8     1     2   ar
     9     2     3   ar
    10     3    19    1
    11    19    20    1
    12     3     4   ar
    13     4     5   ar
    14     5     6   ar
    15     6     7   ar
    16     7     8   ar
    17     8     9   ar
    18     9    10   ar
    19    15    16   ar
    20    16    11   ar
    21    10     1   ar
    22     9     4   ar
@<TRIPOS>MOLECULE
*****
 20 22 0 0 0
SMALL
GASTEIGER

@<TRIPOS>ATOM
      1 C          62.5523   86.0270   11.8263 C.ar    1  UNL1        0.1654
      2 N          63.2287   86.2083   13.1528 N.ar    1  UNL1       -0.1925
      3 C          63.6763   85.0101   13.9364 C.ar    1  UNL1        0.2276
      4 C          63.4475   83.6306   13.3934 C.ar    1  UNL1        0.0709
      5 C          63.8951   82.4324   14.1770 C.ar    1  UNL1        0.0062
      6 C          63.6663   81.0530   13.6340 C.ar    1  UNL1        0.0003
      7 C          62.9899   80.8718   12.3075 C.ar    1  UNL1        0.0015
      8 C          62.5423   82.0700   11.5239 C.ar    1  UNL1        0.0193
      9 C          62.7711   83.4494   12.0669 C.ar    1  UNL1        0.0874
     10 N          62.3235   84.6476   11.2834 N.ar    1  UNL1       -0.2263
     11 C          60.6622   88.2641    9.1481 C.ar    1  UNL1        0.1388
     12 C          61.2095   89.6217    9.4758 C.ar    1  UNL1        0.0369
     13 C          62.2043   89.7811   10.5870 C.ar    1  UNL1        0.0032
     14 C          62.6519   88.5829   11.3705 C.ar    1  UNL1        0.0032
     15 C          62.1046   87.2253   11.0428 C.ar    1  UNL1        0.0389
     16 C          61.1098   87.0659    9.9316 C.ar    1  UNL1        0.0399
     17 C          59.0994   86.7515    7.7269 C.3     1  UNL1        0.2525
     18 O          59.6673   88.1048    8.0368 O.3     1  UNL1       -0.4714
     19 O          64.3527   85.1913   15.2629 O.3     1  UNL1       -0.4561
     20 C          63.6310   85.8762   16.3854 C.3     1  UNL1        0.2542
@<TRIPOS>BOND
     1    17    18    1
     2    18    11    1
     3    11    12   ar
     4    12    13   ar
     5    13    14   ar
     6    14    15   ar
     7    15     1    1
     8     1     2   ar
     9     2     3   ar
    10     3    19    1
    11    19    20    1
    12     3     4   ar
    13     4     5   ar
    14     5     6   ar
    15     6     7   ar
    16     7     8   ar
    17     8     9   ar
    18     9    10   ar
    19    15    16   ar
    20    16    11   ar
    21    10     1   ar
    22     9     4   ar
@<TRIPOS>MOLECULE
*****
 20 22 0 0 0
SMALL
GASTEIGER

@<TRIPOS>ATOM
      1 C          62.3631   89.2082   10.7096 C.ar    1  UNL1        0.1654
      2 N          62.5455   88.7310   12.1199 N.ar    1  UNL1       -0.1925
      3 C          63.4387   89.4874   13.0580 C.ar    1  UNL1        0.2276
      4 C          64.1495   90.7210   12.5858 C.ar    1  UNL1        0.0709
      5 C          65.0426   91.4774   13.5239 C.ar    1  UNL1        0.0062
      6 C          65.7534   92.7110   13.0517 C.ar    1  UNL1        0.0003
      7 C          65.5710   93.1882   11.6414 C.ar    1  UNL1        0.0015
      8 C          64.6778   92.4318   10.7033 C.ar    1  UNL1        0.0193
      9 C          63.9671   91.1982   11.1755 C.ar    1  UNL1        0.0874
     10 N          63.0738   90.4418   10.2374 N.ar    1  UNL1       -0.2263
     11 C          59.6398   88.4378    7.9276 C.ar    1  UNL1        0.1388
     12 C          59.6836   86.9388    7.8954 C.ar    1  UNL1        0.0369
     13 C          60.6205   86.1962    8.8013 C.ar    1  UNL1        0.0032
     14 C          61.5137   86.9527    9.7393 C.ar    1  UNL1        0.0032
     15 C          61.4699   88.4517    9.7715 C.ar    1  UNL1        0.0389
     16 C          60.5329   89.1943    8.8656 C.ar    1  UNL1        0.0399
     17 C          59.2480   90.0321    5.9139 C.3     1  UNL1        0.2525
     18 O          58.7027   89.1804    7.0216 O.3     1  UNL1       -0.4714
     19 O          63.6211   89.0102   14.4684 O.3     1  UNL1       -0.4561
     20 C          64.3918   87.7525   14.7408 C.3     1  UNL1        0.2542
@<TRIPOS>BOND
     1    17    18    1
     2    18    11    1
     3    11    12   ar
     4    12    13   ar
     5    13    14   ar
     6    14    15   ar
     7    15     1    1
     8     1     2   ar
     9     2     3   ar
    10     3    19    1
    11    19    20    1
    12     3     4   ar
    13     4     5   ar
    14     5     6   ar
    15     6     7   ar
    16     7     8   ar
    17     8     9   ar
    18     9    10   ar
    19    15    16   ar
    20    16    11   ar
    21    10     1   ar
    22     9     4   ar
@<TRIPOS>MOLECULE
*****
 20 22 0 0 0
SMALL
GASTEIGER

@<TRIPOS>ATOM
      1 C          62.3907   85.9820   11.6573 C.ar    1  UNL1        0.1654
      2 N          63.1307   86.2952   12.9239 N.ar    1  UNL1       -0.1925
      3 C          63.6739   85.1821   13.7700 C.ar    1  UNL1        0.2276
      4 C          63.4771   83.7557   13.3495 C.ar    1  UNL1        0.0709
      5 C          64.0203   82.6426   14.1956 C.ar    1  UNL1        0.0062
      6 C          63.8234   81.2163   13.7751 C.ar    1  UNL1        0.0003
      7 C          63.0833   80.9031   12.5086 C.ar    1  UNL1        0.0015
      8 C          62.5402   82.0162   11.6625 C.ar    1  UNL1        0.0193
      9 C          62.7370   83.4425   12.0829 C.ar    1  UNL1        0.0874
     10 N          62.1938   84.5557   11.2368 N.ar    1  UNL1       -0.2263
     11 C          61.8726   89.5909   10.0897 C.ar    1  UNL1        0.1388
     12 C          60.7611   89.3214    9.1190 C.ar    1  UNL1        0.0369
     13 C          60.1929   87.9388    8.9945 C.ar    1  UNL1        0.0032
     14 C          60.7361   86.8257    9.8406 C.ar    1  UNL1        0.0032
     15 C          61.8475   87.0952   10.8112 C.ar    1  UNL1        0.0389
     16 C          62.4157   88.4778   10.9357 C.ar    1  UNL1        0.0399
     17 C          63.6244   91.2208   11.1017 C.3     1  UNL1        0.2525
     18 O          62.4408   90.9735   10.2142 O.3     1  UNL1       -0.4714
     19 O          64.4140   85.4953   15.0366 O.3     1  UNL1       -0.4561
     20 C          63.6545   85.7726   16.3000 C.3     1  UNL1        0.2542
@<TRIPOS>BOND
     1    17    18    1
     2    18    11    1
     3    11    12   ar
     4    12    13   ar
     5    13    14   ar
     6    14    15   ar
     7    15     1    1
     8     1     2   ar
     9     2     3   ar
    10     3    19    1
    11    19    20    1
    12     3     4   ar
    13     4     5   ar
    14     5     6   ar
    15     6     7   ar
    16     7     8   ar
    17     8     9   ar
    18     9    10   ar
    19    15    16   ar
    20    16    11   ar
    21    10     1   ar
    22     9     4   ar
@<TRIPOS>MOLECULE
*****
 20 22 0 0 0
SMALL
GASTEIGER

@<TRIPOS>ATOM
      1 C          64.2062   89.5578   14.3272 C.ar    1  UNL1        0.1654
      2 N          63.6052   89.6298   12.9547 N.ar    1  UNL1       -0.1925
      3 C          63.9357   90.7802   12.0507 C.ar    1  UNL1        0.2276
      4 C          64.8671   91.8587   12.5192 C.ar    1  UNL1        0.0709
      5 C          65.1975   93.0091   11.6151 C.ar    1  UNL1        0.0062
      6 C          66.1289   94.0875   12.0836 C.ar    1  UNL1        0.0003
      7 C          66.7299   94.0156   13.4561 C.ar    1  UNL1        0.0015
      8 C          66.3994   92.8651   14.3601 C.ar    1  UNL1        0.0193
      9 C          65.4680   91.7867   13.8916 C.ar    1  UNL1        0.0874
     10 N          65.1375   90.6362   14.7957 N.ar    1  UNL1       -0.2263
     11 C          63.9096   85.8585   15.7333 C.ar    1  UNL1        0.1388
     12 C          63.2147   86.1065   17.0393 C.ar    1  UNL1        0.0369
     13 C          62.8502   87.5049   17.4413 C.ar    1  UNL1        0.0032
     14 C          63.1807   88.6553   16.5372 C.ar    1  UNL1        0.0032
     15 C          63.8757   88.4073   15.2313 C.ar    1  UNL1        0.0389
     16 C          64.2401   87.0089   14.8293 C.ar    1  UNL1        0.0399
     17 C          64.6648   84.1649   13.9137 C.3     1  UNL1        0.2525
     18 O          64.2741   84.4600   15.3314 O.3     1  UNL1       -0.4714
     19 O          63.3347   90.8522   10.6782 O.3     1  UNL1       -0.4561
     20 C          61.9087   90.4407   10.4613 C.3     1  UNL1        0.2542
@<TRIPOS>BOND
     1    17    18    1
     2    18    11    1
     3    11    12   ar
     4    12    13   ar
     5    13    14   ar
     6    14    15   ar
     7    15     1    1
     8     1     2   ar
     9     2     3   ar
    10     3    19    1
    11    19    20    1
    12     3     4   ar
    13     4     5   ar
    14     5     6   ar
    15     6     7   ar
    16     7     8   ar
    17     8     9   ar
    18     9    10   ar
    19    15    16   ar
    20    16    11   ar
    21    10     1   ar
    22     9     4   ar
@<TRIPOS>MOLECULE
*****
 20 22 0 0 0
SMALL
GASTEIGER

@<TRIPOS>ATOM
      1 C          62.9180   90.0598   12.4008 C.ar    1  UNL1        0.1654
      2 N          62.6552   89.7510   13.8449 N.ar    1  UNL1       -0.1925
      3 C          63.4967   90.3847   14.9126 C.ar    1  UNL1        0.2276
      4 C          64.6013   91.3273   14.5362 C.ar    1  UNL1        0.0709
      5 C          65.4429   91.9611   15.6039 C.ar    1  UNL1        0.0062
      6 C          66.5473   92.9036   15.2275 C.ar    1  UNL1        0.0003
      7 C          66.8102   93.2124   13.7834 C.ar    1  UNL1        0.0015
      8 C          65.9686   92.5786   12.7157 C.ar    1  UNL1        0.0193
      9 C          64.8642   91.6361   13.0921 C.ar    1  UNL1        0.0874
     10 N          64.0225   91.0023   12.0243 N.ar    1  UNL1       -0.2263
     11 C          61.4662   87.3617    9.8784 C.ar    1  UNL1        0.1388
     12 C          60.3931   88.1586    9.1977 C.ar    1  UNL1        0.0369
     13 C          60.1617   89.5892    9.5846 C.ar    1  UNL1        0.0032
     14 C          61.0033   90.2229   10.6523 C.ar    1  UNL1        0.0032
     15 C          62.0764   89.4260   11.3330 C.ar    1  UNL1        0.0389
     16 C          62.3078   87.9954   10.9461 C.ar    1  UNL1        0.0399
     17 C          62.8022   85.5809    8.5389 C.3     1  UNL1        0.2525
     18 O          61.6976   85.9310    9.4915 O.3     1  UNL1       -0.4714
     19 O          63.2339   90.0760   16.3568 O.3     1  UNL1       -0.4561
     20 C          63.1357   88.6505   16.8131 C.3     1  UNL1        0.2542
@<TRIPOS>BOND
     1    17    18    1
     2    18    11    1
     3    11    12   ar
     4    12    13   ar
     5    13    14   ar
     6    14    15   ar
     7    15     1    1
     8     1     2   ar
     9     2     3   ar
    10     3    19    1
    11    19    20    1
    12     3     4   ar
    13     4     5   ar
    14     5     6   ar
    15     6     7   ar
    16     7     8   ar
    17     8     9   ar
    18     9    10   ar
    19    15    16   ar
    20    16    11   ar
    21    10     1   ar
    22     9     4   ar
@<TRIPOS>MOLECULE
*****
 20 22 0 0 0
SMALL
GASTEIGER

@<TRIPOS>ATOM
      1 C          63.0146   85.8636   12.0570 C.ar    1  UNL1        0.1654
      2 N          62.3866   86.6640   10.9547 N.ar    1  UNL1       -0.1925
      3 C          62.4022   88.1628   11.0134 C.ar    1  UNL1        0.2276
      4 C          63.0459   88.8612   12.1745 C.ar    1  UNL1        0.0709
      5 C          63.0616   90.3599   12.2332 C.ar    1  UNL1        0.0062
      6 C          63.7052   91.0583   13.3942 C.ar    1  UNL1        0.0003
      7 C          64.3332   90.2579   14.4964 C.ar    1  UNL1        0.0015
      8 C          64.3176   88.7592   14.4377 C.ar    1  UNL1        0.0193
      9 C          63.6739   88.0608   13.2767 C.ar    1  UNL1        0.0874
     10 N          63.6583   86.5620   13.2180 N.ar    1  UNL1       -0.2263
     11 C          62.4438   82.0758   13.0945 C.ar    1  UNL1        0.1388
     12 C          62.9676   81.3674   11.8806 C.ar    1  UNL1        0.0369
     13 C          63.5071   82.1576   10.7254 C.ar    1  UNL1        0.0032
     14 C          63.5227   83.6564   10.7842 C.ar    1  UNL1        0.0032
     15 C          62.9989   84.3648   11.9982 C.ar    1  UNL1        0.0389
     16 C          62.4595   83.5746   13.1533 C.ar    1  UNL1        0.0399
     17 C          60.5348   80.6789   14.1690 C.3     1  UNL1        0.2525
     18 O          61.9043   81.2855   14.2497 O.3     1  UNL1       -0.4714
     19 O          61.7742   88.9631    9.9112 O.3     1  UNL1       -0.4561
     20 C          60.3008   89.2432    9.9334 C.3     1  UNL1        0.2542
@<TRIPOS>BOND
     1    17    18    1
     2    18    11    1
     3    11    12   ar
     4    12    13   ar
     5    13    14   ar
     6    14    15   ar
     7    15     1    1
     8     1     2   ar
     9     2     3   ar
    10     3    19    1
    11    19    20    1
    12     3     4   ar
    13     4     5   ar
    14     5     6   ar
    15     6     7   ar
    16     7     8   ar
    17     8     9   ar
    18     9    10   ar
    19    15    16   ar
    20    16    11   ar
    21    10     1   ar
    22     9     4   ar
@<TRIPOS>MOLECULE
*****
 20 22 0 0 0
SMALL
GASTEIGER

@<TRIPOS>ATOM
      1 C          63.5688   90.6912   11.5894 C.ar    1  UNL1        0.1654
      2 N          64.1840   91.7433   10.7149 N.ar    1  UNL1       -0.1925
      3 C          65.1854   92.7025   11.2869 C.ar    1  UNL1        0.2276
      4 C          65.5717   92.6095   12.7334 C.ar    1  UNL1        0.0709
      5 C          66.5731   93.5686   13.3053 C.ar    1  UNL1        0.0062
      6 C          66.9594   93.4757   14.7517 C.ar    1  UNL1        0.0003
      7 C          66.3442   92.4236   15.6261 C.ar    1  UNL1        0.0015
      8 C          65.3428   91.4644   15.0542 C.ar    1  UNL1        0.0193
      9 C          64.9565   91.5574   13.6078 C.ar    1  UNL1        0.0874
     10 N          63.9551   90.5982   13.0358 N.ar    1  UNL1       -0.2263
     11 C          61.4660   87.3792   10.9905 C.ar    1  UNL1        0.1388
     12 C          60.5644   87.8139    9.8733 C.ar    1  UNL1        0.0369
     13 C          60.6643   89.2077    9.3282 C.ar    1  UNL1        0.0032
     14 C          61.6657   90.1668    9.9002 C.ar    1  UNL1        0.0032
     15 C          62.5673   89.7321   11.0174 C.ar    1  UNL1        0.0389
     16 C          62.4675   88.3382   11.5625 C.ar    1  UNL1        0.0399
     17 C          62.5013   85.0231   11.3472 C.3     1  UNL1        0.2525
     18 O          61.3662   85.9853   11.5357 O.3     1  UNL1       -0.4714
     19 O          65.8005   93.7546   10.4124 O.3     1  UNL1       -0.4561
     20 C          67.1036   93.4862    9.7197 C.3     1  UNL1        0.2542
@<TRIPOS>BOND
     1    17    18    1
     2    18    11    1
     3    11    12   ar
     4    12    13   ar
     5    13    14   ar
     6    14    15   ar
     7    15     1    1
     8     1     2   ar
     9     2     3   ar
    10     3    19    1
    11    19    20    1
    12     3     4   ar
    13     4     5   ar
    14     5     6   ar
    15     6     7   ar
    16     7     8   ar
    17     8     9   ar
    18     9    10   ar
    19    15    16   ar
    20    16    11   ar
    21    10     1   ar
    22     9     4   ar
