@<TRIPOS>MOLECULE
*****
 44 47 0 0 0
SMALL
GASTEIGER

@<TRIPOS>ATOM
      1 C          59.8610   89.6431   11.4020 C.3     1  UNL1        0.0965
      2 C          59.4196   90.9834   10.8935 C.3     1  UNL1        0.0746
      3 N          58.4580   91.8100   11.6948 N.3     1  UNL1       -0.3207
      4 H          57.5552   91.3371   11.7357 H       1  UNL1        0.1189
      5 H          58.3442   92.7224   11.2534 H       1  UNL1        0.1189
      6 N          62.1371   89.8482   12.6379 N.am    1  UNL1       -0.2770
      7 C          60.6677   89.5478   12.6631 C.2     1  UNL1        0.2270
      8 O          60.0050   89.1522   13.9493 O.2     1  UNL1       -0.2748
      9 C          62.7998   90.2438   11.3516 C.3     1  UNL1        0.0758
     10 C          63.4583   91.2853   10.4963 C.3     1  UNL1        0.0215
     11 C          63.2891   89.8875    9.9792 C.3     1  UNL1        0.0215
     12 C          62.9438   89.7530   13.8989 C.3     1  UNL1        0.1209
     13 C          65.9265   92.3050   13.3148 C.ar    1  UNL1       -0.0223
     14 C          66.1964   92.7521   14.7209 C.ar    1  UNL1       -0.0034
     15 C          65.3822   92.1995   15.8530 C.ar    1  UNL1        0.0108
     16 C          64.2980   91.1998   15.5790 C.ar    1  UNL1        0.0553
     17 CL         63.4838   90.6472   16.7112 Cl      1  UNL1       -0.0825
     18 C          64.0281   90.7527   14.1729 C.ar    1  UNL1        0.0079
     19 C          64.8423   91.3053   13.0408 C.ar    1  UNL1       -0.0060
     20 C          66.7407   92.8576   12.1827 C.3     1  UNL1        0.0289
     21 C          66.2731   94.0796   11.4492 C.3     1  UNL1        0.0367
     22 C          66.7871   94.3690   10.0700 C.3     1  UNL1        0.1426
     23 C          68.5623   92.7656    9.0562 C.3     1  UNL1        0.1741
     24 O          68.2139   94.0639    9.7220 O.3     1  UNL1       -0.3511
     25 C          59.4958   88.3979   10.6495 C.3     1  UNL1        0.0368
     26 C          60.5332   87.3455   10.3925 C.ar    1  UNL1       -0.0215
     27 C          60.9978   87.0765    8.9918 C.ar    1  UNL1       -0.0011
     28 C          62.0352   86.0241    8.7348 C.ar    1  UNL1        0.0366
     29 C          62.6081   85.2405    9.8784 C.ar    1  UNL1        0.1387
     30 C          62.1435   85.5095   11.2791 C.ar    1  UNL1        0.0366
     31 C          61.1061   86.5620   11.5361 C.ar    1  UNL1       -0.0011
     32 O          63.6455   84.1881    9.6214 O.3     1  UNL1       -0.4714
     33 C          63.7985   83.0378   10.5719 C.3     1  UNL1        0.2525
     34 C          64.8010   83.1131   11.6851 C.3     1  UNL1        0.2525
     35 O          64.4646   82.5555   13.0364 O.3     1  UNL1       -0.4697
     36 C          63.9351   83.4593   14.1101 C.ar    1  UNL1        0.1596
     37 C          64.7843   84.5796   14.6336 C.ar    1  UNL1        0.0921
     38 CL         66.1629   84.7959   14.0834 Cl      1  UNL1       -0.0791
     39 C          64.2549   85.4834   15.7073 C.ar    1  UNL1        0.0103
     40 C          62.8763   85.2670   16.2575 C.ar    1  UNL1       -0.0200
     41 C          62.3469   86.1708   17.3312 C.3     1  UNL1        0.0311
     42 C          62.0271   84.1468   15.7340 C.ar    1  UNL1        0.0103
     43 C          62.5566   83.2430   14.6603 C.ar    1  UNL1        0.0921
     44 CL         61.7074   82.1228   14.1368 Cl      1  UNL1       -0.0791
@<TRIPOS>BOND
     1    23    24    1
     2    24    22    1
     3    22    21    1
     4    21    20    1
     5    20    13    1
     6    13    14   ar
     7    14    15   ar
     8    15    16   ar
     9    16    17    1
    10    16    18   ar
    11    18    12    1
    12    12     6    1
    13     6     7   am
    14     7     8    2
    15     7     1    1
    16     1     2    1
    17     2     3    1
    18     1    25    1
    19    25    26    1
    20    26    27   ar
    21    27    28   ar
    22    28    29   ar
    23    29    32    1
    24    32    33    1
    25    33    34    1
    26    34    35    1
    27    35    36    1
    28    36    37   ar
    29    37    38    1
    30    37    39   ar
    31    39    40   ar
    32    40    41    1
    33    40    42   ar
    34    42    43   ar
    35    43    44    1
    36    29    30   ar
    37    30    31   ar
    38     6     9    1
    39     9    10    1
    40    10    11    1
    41    18    19   ar
    42    19    13   ar
    43    31    26   ar
    44    11     9    1
    45    43    36   ar
    46     3     4    1
    47     3     5    1
@<TRIPOS>MOLECULE
*****
 44 47 0 0 0
SMALL
GASTEIGER

@<TRIPOS>ATOM
      1 C          63.1600   85.1664   14.1877 C.3     1  UNL1        0.0965
      2 C          62.2664   84.0757   14.6992 C.3     1  UNL1        0.0746
      3 N          62.7952   83.0706   15.6790 N.3     1  UNL1       -0.3207
      4 H          63.5155   82.5048   15.2303 H       1  UNL1        0.1189
      5 H          62.0344   82.4673   15.9913 H       1  UNL1        0.1189
      6 N          63.1095   84.5093   11.6745 N.am    1  UNL1       -0.2770
      7 C          63.1072   85.5631   12.7420 C.2     1  UNL1        0.2270
      8 O          63.0521   87.0136   12.3638 O.2     1  UNL1       -0.2748
      9 C          63.1646   83.0588   12.0527 C.3     1  UNL1        0.0758
     10 C          63.9455   81.8680   12.5239 C.3     1  UNL1        0.0215
     11 C          62.4791   81.7373   12.2366 C.3     1  UNL1        0.0215
     12 C          63.0567   84.9060   10.2289 C.3     1  UNL1        0.1209
     13 C          60.1339   87.5904   10.1921 C.ar    1  UNL1       -0.0223
     14 C          59.7419   87.5628    8.7445 C.ar    1  UNL1       -0.0034
     15 C          60.4549   86.6496    7.7917 C.ar    1  UNL1        0.0108
     16 C          61.5598   85.7640    8.2865 C.ar    1  UNL1        0.0553
     17 CL         62.2727   84.8508    7.3337 Cl      1  UNL1       -0.0825
     18 C          61.9517   85.7916    9.7341 C.ar    1  UNL1        0.0079
     19 C          61.2388   86.7048   10.6868 C.ar    1  UNL1       -0.0060
     20 C          59.4210   88.5036   11.1449 C.3     1  UNL1        0.0289
     21 C          60.1441   89.6717   11.7471 C.3     1  UNL1        0.0367
     22 C          61.1620   90.4211   10.9396 C.3     1  UNL1        0.1426
     23 C          63.5749   91.3465   10.6719 C.3     1  UNL1        0.1741
     24 O          62.5121   90.7169   11.5227 O.3     1  UNL1       -0.3511
     25 C          64.1065   85.8604   15.1217 C.3     1  UNL1        0.0368
     26 C          64.0201   87.3460   15.3099 C.ar    1  UNL1       -0.0215
     27 C          63.2808   87.9112   16.4864 C.ar    1  UNL1       -0.0011
     28 C          63.1943   89.3968   16.6746 C.ar    1  UNL1        0.0366
     29 C          63.8471   90.3173   15.6863 C.ar    1  UNL1        0.1387
     30 C          64.5864   89.7521   14.5099 C.ar    1  UNL1        0.0366
     31 C          64.6728   88.2664   14.3217 C.ar    1  UNL1       -0.0011
     32 O          63.7606   91.8029   15.8745 O.3     1  UNL1       -0.4714
     33 C          64.9754   92.5782   16.2907 C.3     1  UNL1        0.2525
     34 C          66.1117   92.7648   15.3294 C.3     1  UNL1        0.2525
     35 O          65.9418   93.6495   14.1300 O.3     1  UNL1       -0.4697
     36 C          66.6095   93.2933   12.8348 C.ar    1  UNL1        0.1596
     37 C          67.4638   92.0637   12.7447 C.ar    1  UNL1        0.0921
     38 CL         67.6504   91.1901   13.9498 Cl      1  UNL1       -0.0791
     39 C          68.1314   91.7075   11.4496 C.ar    1  UNL1        0.0103
     40 C          67.9448   92.5811   10.2445 C.ar    1  UNL1       -0.0200
     41 C          68.6124   92.2249    8.9494 C.3     1  UNL1        0.0311
     42 C          67.0905   93.8107   10.3346 C.ar    1  UNL1        0.0103
     43 C          66.4229   94.1669   11.6298 C.ar    1  UNL1        0.0921
     44 CL         65.5686   95.3965   11.7199 Cl      1  UNL1       -0.0791
@<TRIPOS>BOND
     1    23    24    1
     2    24    22    1
     3    22    21    1
     4    21    20    1
     5    20    13    1
     6    13    14   ar
     7    14    15   ar
     8    15    16   ar
     9    16    17    1
    10    16    18   ar
    11    18    12    1
    12    12     6    1
    13     6     7   am
    14     7     8    2
    15     7     1    1
    16     1     2    1
    17     2     3    1
    18     1    25    1
    19    25    26    1
    20    26    27   ar
    21    27    28   ar
    22    28    29   ar
    23    29    32    1
    24    32    33    1
    25    33    34    1
    26    34    35    1
    27    35    36    1
    28    36    37   ar
    29    37    38    1
    30    37    39   ar
    31    39    40   ar
    32    40    41    1
    33    40    42   ar
    34    42    43   ar
    35    43    44    1
    36    29    30   ar
    37    30    31   ar
    38     6     9    1
    39     9    10    1
    40    10    11    1
    41    18    19   ar
    42    19    13   ar
    43    31    26   ar
    44    11     9    1
    45    43    36   ar
    46     3     4    1
    47     3     5    1
@<TRIPOS>MOLECULE
*****
 44 47 0 0 0
SMALL
GASTEIGER

@<TRIPOS>ATOM
      1 C          60.8822   88.6485   10.0573 C.3     1  UNL1        0.0965
      2 C          60.3330   87.8197   11.1803 C.3     1  UNL1        0.0746
      3 N          59.4228   88.4429   12.1968 N.3     1  UNL1       -0.3207
      4 H          59.9396   89.1384   12.7348 H       1  UNL1        0.1189
      5 H          59.0695   87.7209   12.8248 H       1  UNL1        0.1189
      6 N          59.5450   88.4380    7.8397 N.am    1  UNL1       -0.2770
      7 C          59.9539   89.2410    9.0388 C.2     1  UNL1        0.2270
      8 O          59.4344   90.6366    9.2195 O.2     1  UNL1       -0.2748
      9 C          60.0645   87.0424    7.6590 C.3     1  UNL1        0.0758
     10 C          59.9028   85.6576    7.1058 C.3     1  UNL1        0.0215
     11 C          61.1259   86.0101    7.8993 C.3     1  UNL1        0.0215
     12 C          58.6167   89.0304    6.8213 C.3     1  UNL1        0.1209
     13 C          61.0881   91.1756    4.5762 C.ar    1  UNL1       -0.0223
     14 C          60.1288   92.1335    3.9343 C.ar    1  UNL1       -0.0034
     15 C          58.6654   92.0571    4.2548 C.ar    1  UNL1        0.0108
     16 C          58.1614   91.0227    5.2171 C.ar    1  UNL1        0.0553
     17 CL         56.6980   90.9463    5.5375 Cl      1  UNL1       -0.0825
     18 C          59.1207   90.0648    5.8589 C.ar    1  UNL1        0.0079
     19 C          60.5841   90.1413    5.5385 C.ar    1  UNL1       -0.0060
     20 C          62.5515   91.2520    4.2558 C.3     1  UNL1        0.0289
     21 C          63.0112   91.1901    2.8293 C.3     1  UNL1        0.0367
     22 C          63.3564   92.4529    2.0971 C.3     1  UNL1        0.1426
     23 C          61.7988   94.4175    1.4156 C.3     1  UNL1        0.1741
     24 O          62.3718   93.0587    1.1412 O.3     1  UNL1       -0.3511
     25 C          62.3598   88.8849    9.9526 C.3     1  UNL1        0.0368
     26 C          63.0611   89.7172   10.9847 C.ar    1  UNL1       -0.0215
     27 C          63.3444   89.1464   12.3426 C.ar    1  UNL1       -0.0011
     28 C          64.0457   89.9788   13.3746 C.ar    1  UNL1        0.0366
     29 C          64.4639   91.3820   13.0488 C.ar    1  UNL1        0.1387
     30 C          64.1807   91.9528   11.6909 C.ar    1  UNL1        0.0366
     31 C          63.4793   91.1204   10.6588 C.ar    1  UNL1       -0.0011
     32 O          65.1653   92.2144   14.0809 O.3     1  UNL1       -0.4714
     33 C          66.6459   92.0750   14.2771 C.3     1  UNL1        0.2525
     34 C          67.5927   92.6000   13.2390 C.3     1  UNL1        0.2525
     35 O          67.3403   92.3250   11.7861 O.3     1  UNL1       -0.4697
     36 C          67.3056   93.4578   10.8034 C.ar    1  UNL1        0.1596
     37 C          67.8879   93.2795    9.4326 C.ar    1  UNL1        0.0921
     38 CL         68.5050   91.9685    9.0445 Cl      1  UNL1       -0.0791
     39 C          67.8532   94.4122    8.4499 C.ar    1  UNL1        0.0103
     40 C          67.2361   95.7232    8.8380 C.ar    1  UNL1       -0.0200
     41 C          67.2014   96.8559    7.8553 C.3     1  UNL1        0.0311
     42 C          66.6538   95.9015   10.2088 C.ar    1  UNL1        0.0103
     43 C          66.6886   94.7687   11.1915 C.ar    1  UNL1        0.0921
     44 CL         66.1063   94.9470   12.5623 Cl      1  UNL1       -0.0791
@<TRIPOS>BOND
     1    23    24    1
     2    24    22    1
     3    22    21    1
     4    21    20    1
     5    20    13    1
     6    13    14   ar
     7    14    15   ar
     8    15    16   ar
     9    16    17    1
    10    16    18   ar
    11    18    12    1
    12    12     6    1
    13     6     7   am
    14     7     8    2
    15     7     1    1
    16     1     2    1
    17     2     3    1
    18     1    25    1
    19    25    26    1
    20    26    27   ar
    21    27    28   ar
    22    28    29   ar
    23    29    32    1
    24    32    33    1
    25    33    34    1
    26    34    35    1
    27    35    36    1
    28    36    37   ar
    29    37    38    1
    30    37    39   ar
    31    39    40   ar
    32    40    41    1
    33    40    42   ar
    34    42    43   ar
    35    43    44    1
    36    29    30   ar
    37    30    31   ar
    38     6     9    1
    39     9    10    1
    40    10    11    1
    41    18    19   ar
    42    19    13   ar
    43    31    26   ar
    44    11     9    1
    45    43    36   ar
    46     3     4    1
    47     3     5    1
@<TRIPOS>MOLECULE
*****
 44 47 0 0 0
SMALL
GASTEIGER

@<TRIPOS>ATOM
      1 C          63.7855   83.7351   13.1305 C.3     1  UNL1        0.0965
      2 C          64.0586   82.3650   12.5844 C.3     1  UNL1        0.0746
      3 N          62.9247   81.4118   12.3488 N.3     1  UNL1       -0.3207
      4 H          62.5023   81.1585   13.2419 H       1  UNL1        0.1189
      5 H          63.2764   80.5721   11.8887 H       1  UNL1        0.1189
      6 N          62.2122   84.7718   11.3416 N.am    1  UNL1       -0.2770
      7 C          62.5126   84.4444   12.7743 C.2     1  UNL1        0.2270
      8 O          61.5403   84.8263   13.8507 O.2     1  UNL1       -0.2748
      9 C          63.1846   84.3898   10.2651 C.3     1  UNL1        0.0758
     10 C          64.2540   83.4754    9.7454 C.3     1  UNL1        0.0215
     11 C          63.7993   84.6427    8.9204 C.3     1  UNL1        0.0215
     12 C          60.9394   85.4811   10.9853 C.3     1  UNL1        0.1209
     13 C          60.1231   88.4041    8.4281 C.ar    1  UNL1       -0.0223
     14 C          61.0918   89.4559    8.8812 C.ar    1  UNL1       -0.0034
     15 C          62.0097   89.1828   10.0356 C.ar    1  UNL1        0.0108
     16 C          61.9589   87.8579   10.7370 C.ar    1  UNL1        0.0553
     17 CL         62.8768   87.5848   11.8915 Cl      1  UNL1       -0.0825
     18 C          60.9902   86.8061   10.2839 C.ar    1  UNL1        0.0079
     19 C          60.0723   87.0792    9.1294 C.ar    1  UNL1       -0.0060
     20 C          59.2052   88.6772    7.2736 C.3     1  UNL1        0.0289
     21 C          59.5406   89.7569    6.2878 C.3     1  UNL1        0.0367
     22 C          58.4428   90.5367    5.6270 C.3     1  UNL1        0.1426
     23 C          59.5775   92.3346    4.1337 C.3     1  UNL1        0.1741
     24 O          58.6589   91.9760    5.2640 O.3     1  UNL1       -0.3511
     25 C          64.7851   84.3959   14.0327 C.3     1  UNL1        0.0368
     26 C          64.4014   85.6223   14.8065 C.ar    1  UNL1       -0.0215
     27 C          64.6962   86.9834   14.2493 C.ar    1  UNL1       -0.0011
     28 C          64.3125   88.2097   15.0231 C.ar    1  UNL1        0.0366
     29 C          63.6340   88.0750   16.3541 C.ar    1  UNL1        0.1387
     30 C          63.3392   86.7139   16.9113 C.ar    1  UNL1        0.0366
     31 C          63.7229   85.4875   16.1374 C.ar    1  UNL1       -0.0011
     32 O          63.2503   89.3014   17.1279 O.3     1  UNL1       -0.4714
     33 C          63.1147   90.6197   16.4252 C.3     1  UNL1        0.2525
     34 C          64.3077   91.5167   16.2771 C.3     1  UNL1        0.2525
     35 O          65.3704   91.1912   15.2697 O.3     1  UNL1       -0.4697
     36 C          65.5518   92.0631   14.0626 C.ar    1  UNL1        0.1596
     37 C          64.8115   91.7530   12.7954 C.ar    1  UNL1        0.0921
     38 CL         63.8898   90.5711   12.7353 Cl      1  UNL1       -0.0791
     39 C          64.9929   92.6248   11.5883 C.ar    1  UNL1        0.0103
     40 C          65.9146   93.8067   11.6485 C.ar    1  UNL1       -0.0200
     41 C          66.0960   94.6785   10.4414 C.3     1  UNL1        0.0311
     42 C          66.6549   94.1168   12.9157 C.ar    1  UNL1        0.0103
     43 C          66.4735   93.2449   14.1228 C.ar    1  UNL1        0.0921
     44 CL         67.2138   93.5550   15.3900 Cl      1  UNL1       -0.0791
@<TRIPOS>BOND
     1    23    24    1
     2    24    22    1
     3    22    21    1
     4    21    20    1
     5    20    13    1
     6    13    14   ar
     7    14    15   ar
     8    15    16   ar
     9    16    17    1
    10    16    18   ar
    11    18    12    1
    12    12     6    1
    13     6     7   am
    14     7     8    2
    15     7     1    1
    16     1     2    1
    17     2     3    1
    18     1    25    1
    19    25    26    1
    20    26    27   ar
    21    27    28   ar
    22    28    29   ar
    23    29    32    1
    24    32    33    1
    25    33    34    1
    26    34    35    1
    27    35    36    1
    28    36    37   ar
    29    37    38    1
    30    37    39   ar
    31    39    40   ar
    32    40    41    1
    33    40    42   ar
    34    42    43   ar
    35    43    44    1
    36    29    30   ar
    37    30    31   ar
    38     6     9    1
    39     9    10    1
    40    10    11    1
    41    18    19   ar
    42    19    13   ar
    43    31    26   ar
    44    11     9    1
    45    43    36   ar
    46     3     4    1
    47     3     5    1
@<TRIPOS>MOLECULE
*****
 44 47 0 0 0
SMALL
GASTEIGER

@<TRIPOS>ATOM
      1 C          62.9293   84.3042   13.3341 C.3     1  UNL1        0.0965
      2 C          61.9790   83.1468   13.4178 C.3     1  UNL1        0.0746
      3 N          62.0529   82.1981   14.5773 N.3     1  UNL1       -0.3207
      4 H          62.9373   81.6909   14.5458 H       1  UNL1        0.1189
      5 H          61.2790   81.5357   14.5245 H       1  UNL1        0.1189
      6 N          63.3442   84.4886   10.7760 N.am    1  UNL1       -0.2770
      7 C          62.9947   85.1322   12.0850 C.2     1  UNL1        0.2270
      8 O          62.7105   86.6038   12.1449 O.2     1  UNL1       -0.2748
      9 C          63.6284   83.0169   10.7161 C.3     1  UNL1        0.0758
     10 C          64.3521   81.8113   11.2383 C.3     1  UNL1        0.0215
     11 C          63.3969   81.6736   10.0901 C.3     1  UNL1        0.0215
     12 C          63.4096   85.3165    9.5269 C.3     1  UNL1        0.1209
     13 C          60.5111   87.9896    9.0752 C.ar    1  UNL1       -0.0223
     14 C          59.7065   87.3530    7.9811 C.ar    1  UNL1       -0.0034
     15 C          60.1361   86.0376    7.4021 C.ar    1  UNL1        0.0108
     16 C          61.3705   85.3588    7.9174 C.ar    1  UNL1        0.0553
     17 CL         61.8001   84.0434    7.3385 Cl      1  UNL1       -0.0825
     18 C          62.1751   85.9953    9.0116 C.ar    1  UNL1        0.0079
     19 C          61.7455   87.3107    9.5905 C.ar    1  UNL1       -0.0060
     20 C          60.0815   89.3049    9.6542 C.3     1  UNL1        0.0289
     21 C          60.5662   89.7213   11.0112 C.3     1  UNL1        0.0367
     22 C          59.5806   89.9946   12.1084 C.3     1  UNL1        0.1426
     23 C          57.7983   88.5694   13.3503 C.3     1  UNL1        0.1741
     24 O          59.2346   88.9158   13.0916 O.3     1  UNL1       -0.3511
     25 C          63.8144   84.6338   14.4995 C.3     1  UNL1        0.0368
     26 C          63.6975   85.9671   15.1766 C.ar    1  UNL1       -0.0215
     27 C          63.0054   86.0766   16.5029 C.ar    1  UNL1       -0.0011
     28 C          62.8885   87.4099   17.1800 C.ar    1  UNL1        0.0366
     29 C          63.4637   88.6338   16.5309 C.ar    1  UNL1        0.1387
     30 C          64.1558   88.5243   15.2046 C.ar    1  UNL1        0.0366
     31 C          64.2727   87.1909   14.5275 C.ar    1  UNL1       -0.0011
     32 O          63.3468   89.9671   17.2080 O.3     1  UNL1       -0.4714
     33 C          63.4018   91.2276   16.3969 C.3     1  UNL1        0.2525
     34 C          64.7264   91.8458   16.0605 C.3     1  UNL1        0.2525
     35 O          65.5058   91.3520   14.8779 O.3     1  UNL1       -0.4697
     36 C          65.6055   92.1942   13.6406 C.ar    1  UNL1        0.1596
     37 C          66.5100   93.3906   13.6186 C.ar    1  UNL1        0.0921
     38 CL         67.3148   93.7448   14.8339 Cl      1  UNL1       -0.0791
     39 C          66.6097   94.2328   12.3814 C.ar    1  UNL1        0.0103
     40 C          65.8049   93.8786   11.1661 C.ar    1  UNL1       -0.0200
     41 C          65.9046   94.7207    9.9289 C.3     1  UNL1        0.0311
     42 C          64.9004   92.6822   11.1881 C.ar    1  UNL1        0.0103
     43 C          64.8007   91.8399   12.4254 C.ar    1  UNL1        0.0921
     44 CL         63.8962   90.6435   12.4474 Cl      1  UNL1       -0.0791
@<TRIPOS>BOND
     1    23    24    1
     2    24    22    1
     3    22    21    1
     4    21    20    1
     5    20    13    1
     6    13    14   ar
     7    14    15   ar
     8    15    16   ar
     9    16    17    1
    10    16    18   ar
    11    18    12    1
    12    12     6    1
    13     6     7   am
    14     7     8    2
    15     7     1    1
    16     1     2    1
    17     2     3    1
    18     1    25    1
    19    25    26    1
    20    26    27   ar
    21    27    28   ar
    22    28    29   ar
    23    29    32    1
    24    32    33    1
    25    33    34    1
    26    34    35    1
    27    35    36    1
    28    36    37   ar
    29    37    38    1
    30    37    39   ar
    31    39    40   ar
    32    40    41    1
    33    40    42   ar
    34    42    43   ar
    35    43    44    1
    36    29    30   ar
    37    30    31   ar
    38     6     9    1
    39     9    10    1
    40    10    11    1
    41    18    19   ar
    42    19    13   ar
    43    31    26   ar
    44    11     9    1
    45    43    36   ar
    46     3     4    1
    47     3     5    1
@<TRIPOS>MOLECULE
*****
 44 47 0 0 0
SMALL
GASTEIGER

@<TRIPOS>ATOM
      1 C          60.2226   88.8413    8.5108 C.3     1  UNL1        0.0965
      2 C          60.4991   90.1753    9.1384 C.3     1  UNL1        0.0746
      3 N          61.9015   90.5504    9.5159 N.3     1  UNL1       -0.3207
      4 H          62.2272   89.9388   10.2644 H       1  UNL1        0.1189
      5 H          61.9201   91.5188    9.8357 H       1  UNL1        0.1189
      6 N          60.8092   87.3159   10.5305 N.am    1  UNL1       -0.2770
      7 C          60.8712   87.6052    9.0600 C.2     1  UNL1        0.2270
      8 O          61.5817   86.6585    8.1387 O.2     1  UNL1       -0.2748
      9 C          60.0986   88.2627   11.4519 C.3     1  UNL1        0.0758
     10 C          60.1074   89.4943   12.3080 C.3     1  UNL1        0.0215
     11 C          58.8591   88.6709   12.1915 C.3     1  UNL1        0.0215
     12 C          61.4577   86.0799   11.0797 C.3     1  UNL1        0.1209
     13 C          63.9508   87.6478   13.7399 C.ar    1  UNL1       -0.0223
     14 C          64.4713   86.4084   14.4055 C.ar    1  UNL1       -0.0034
     15 C          63.9872   85.0595   13.9625 C.ar    1  UNL1        0.0108
     16 C          62.9827   84.9500   12.8539 C.ar    1  UNL1        0.0553
     17 CL         62.4987   83.6011   12.4109 Cl      1  UNL1       -0.0825
     18 C          62.4623   86.1894   12.1884 C.ar    1  UNL1        0.0079
     19 C          62.9463   87.5383   12.6313 C.ar    1  UNL1       -0.0060
     20 C          64.4348   88.9966   14.1829 C.3     1  UNL1        0.0289
     21 C          63.6221   90.2210   13.8822 C.3     1  UNL1        0.0367
     22 C          64.0919   91.1968   12.8444 C.3     1  UNL1        0.1426
     23 C          66.4191   92.3302   13.0673 C.3     1  UNL1        0.1741
     24 O          64.9305   92.3738   13.2465 O.3     1  UNL1       -0.3511
     25 C          59.2976   88.7433    7.3341 C.3     1  UNL1        0.0368
     26 C          59.2779   89.8323    6.3028 C.ar    1  UNL1       -0.0215
     27 C          57.9829   90.4941    5.9355 C.ar    1  UNL1       -0.0011
     28 C          57.9632   91.5831    4.9042 C.ar    1  UNL1        0.0366
     29 C          59.2386   92.0104    4.2401 C.ar    1  UNL1        0.1387
     30 C          60.5337   91.3486    4.6074 C.ar    1  UNL1        0.0366
     31 C          60.5533   90.2595    5.6388 C.ar    1  UNL1       -0.0011
     32 O          59.2189   93.0994    3.2088 O.3     1  UNL1       -0.4714
     33 C          60.0636   92.9793    1.9751 C.3     1  UNL1        0.2525
     34 C          61.4624   93.5207    1.9682 C.3     1  UNL1        0.2525
     35 O          61.8445   94.5993    0.9983 O.3     1  UNL1       -0.4697
     36 C          62.1748   94.2479   -0.4222 C.ar    1  UNL1        0.1596
     37 C          63.5768   93.8651   -0.7935 C.ar    1  UNL1        0.0921
     38 CL         64.6485   93.8337    0.2557 Cl      1  UNL1       -0.0791
     39 C          63.9072   93.5138   -2.2138 C.ar    1  UNL1        0.0103
     40 C          62.8355   93.5452   -3.2629 C.ar    1  UNL1       -0.0200
     41 C          63.1658   93.1938   -4.6832 C.3     1  UNL1        0.0311
     42 C          61.4335   93.9279   -2.8916 C.ar    1  UNL1        0.0103
     43 C          61.1031   94.2793   -1.4712 C.ar    1  UNL1        0.0921
     44 CL         59.7011   94.6621   -1.0999 Cl      1  UNL1       -0.0791
@<TRIPOS>BOND
     1    23    24    1
     2    24    22    1
     3    22    21    1
     4    21    20    1
     5    20    13    1
     6    13    14   ar
     7    14    15   ar
     8    15    16   ar
     9    16    17    1
    10    16    18   ar
    11    18    12    1
    12    12     6    1
    13     6     7   am
    14     7     8    2
    15     7     1    1
    16     1     2    1
    17     2     3    1
    18     1    25    1
    19    25    26    1
    20    26    27   ar
    21    27    28   ar
    22    28    29   ar
    23    29    32    1
    24    32    33    1
    25    33    34    1
    26    34    35    1
    27    35    36    1
    28    36    37   ar
    29    37    38    1
    30    37    39   ar
    31    39    40   ar
    32    40    41    1
    33    40    42   ar
    34    42    43   ar
    35    43    44    1
    36    29    30   ar
    37    30    31   ar
    38     6     9    1
    39     9    10    1
    40    10    11    1
    41    18    19   ar
    42    19    13   ar
    43    31    26   ar
    44    11     9    1
    45    43    36   ar
    46     3     4    1
    47     3     5    1
@<TRIPOS>MOLECULE
*****
 44 47 0 0 0
SMALL
GASTEIGER

@<TRIPOS>ATOM
      1 C          59.8489   88.9479    8.2207 C.3     1  UNL1        0.0965
      2 C          60.1349   90.2888    8.8291 C.3     1  UNL1        0.0746
      3 N          59.5538   90.6454   10.1651 N.3     1  UNL1       -0.3207
      4 H          58.5384   90.7055   10.0891 H       1  UNL1        0.1189
      5 H          59.9259   91.5454   10.4684 H       1  UNL1        0.1189
      6 N          60.8897   87.5444   10.1435 N.am    1  UNL1       -0.2770
      7 C          59.8451   87.7192    9.0812 C.2     1  UNL1        0.2270
      8 O          58.7969   86.6655    8.8795 O.2     1  UNL1       -0.2748
      9 C          61.9380   88.5982   10.3452 C.3     1  UNL1        0.0758
     10 C          62.7417   89.4723   11.2616 C.3     1  UNL1        0.0215
     11 C          62.9498   89.5493    9.7782 C.3     1  UNL1        0.0215
     12 C          60.8859   86.3158   11.0040 C.3     1  UNL1        0.1209
     13 C          63.8015   83.9483   12.2863 C.ar    1  UNL1       -0.0223
     14 C          64.4320   83.5454   10.9862 C.ar    1  UNL1       -0.0034
     15 C          63.8805   84.0660    9.6921 C.ar    1  UNL1        0.0108
     16 C          62.6985   84.9895    9.6980 C.ar    1  UNL1        0.0553
     17 CL         62.1469   85.5101    8.4039 Cl      1  UNL1       -0.0825
     18 C          62.0680   85.3923   10.9981 C.ar    1  UNL1        0.0079
     19 C          62.6195   84.8717   12.2922 C.ar    1  UNL1       -0.0060
     20 C          64.3531   83.4277   13.5804 C.3     1  UNL1        0.0289
     21 C          63.6324   83.7017   14.8671 C.3     1  UNL1        0.0367
     22 C          63.8990   84.9710   15.6205 C.3     1  UNL1        0.1426
     23 C          62.7197   86.2575   17.5451 C.3     1  UNL1        0.1741
     24 O          62.7539   85.8039   16.1158 O.3     1  UNL1       -0.3511
     25 C          59.5667   88.8355    6.7518 C.3     1  UNL1        0.0368
     26 C          59.5867   90.0619    5.8883 C.ar    1  UNL1       -0.0215
     27 C          58.3158   90.8132    5.6229 C.ar    1  UNL1       -0.0011
     28 C          58.3359   92.0395    4.7594 C.ar    1  UNL1        0.0366
     29 C          59.6268   92.5146    4.1612 C.ar    1  UNL1        0.1387
     30 C          60.8977   91.7633    4.4266 C.ar    1  UNL1        0.0366
     31 C          60.8776   90.5369    5.2901 C.ar    1  UNL1       -0.0011
     32 O          59.6469   93.7409    3.2977 O.3     1  UNL1       -0.4714
     33 C          60.5087   93.7802    2.0706 C.3     1  UNL1        0.2525
     34 C          60.3336   92.7467    0.9978 C.3     1  UNL1        0.2525
     35 O          61.4865   92.3859    0.1085 O.3     1  UNL1       -0.4697
     36 C          62.5475   93.4024   -0.1933 C.ar    1  UNL1        0.1596
     37 C          63.7592   93.5052    0.6850 C.ar    1  UNL1        0.0921
     38 CL         63.9098   92.5915    1.8651 Cl      1  UNL1       -0.0791
     39 C          64.8202   94.5216    0.3832 C.ar    1  UNL1        0.0103
     40 C          64.6696   95.4352   -0.7970 C.ar    1  UNL1       -0.0200
     41 C          65.7306   96.4516   -1.0988 C.3     1  UNL1        0.0311
     42 C          63.4580   95.3324   -1.6753 C.ar    1  UNL1        0.0103
     43 C          62.3969   94.3160   -1.3734 C.ar    1  UNL1        0.0921
     44 CL         61.1853   94.2132   -2.2517 Cl      1  UNL1       -0.0791
@<TRIPOS>BOND
     1    23    24    1
     2    24    22    1
     3    22    21    1
     4    21    20    1
     5    20    13    1
     6    13    14   ar
     7    14    15   ar
     8    15    16   ar
     9    16    17    1
    10    16    18   ar
    11    18    12    1
    12    12     6    1
    13     6     7   am
    14     7     8    2
    15     7     1    1
    16     1     2    1
    17     2     3    1
    18     1    25    1
    19    25    26    1
    20    26    27   ar
    21    27    28   ar
    22    28    29   ar
    23    29    32    1
    24    32    33    1
    25    33    34    1
    26    34    35    1
    27    35    36    1
    28    36    37   ar
    29    37    38    1
    30    37    39   ar
    31    39    40   ar
    32    40    41    1
    33    40    42   ar
    34    42    43   ar
    35    43    44    1
    36    29    30   ar
    37    30    31   ar
    38     6     9    1
    39     9    10    1
    40    10    11    1
    41    18    19   ar
    42    19    13   ar
    43    31    26   ar
    44    11     9    1
    45    43    36   ar
    46     3     4    1
    47     3     5    1
@<TRIPOS>MOLECULE
*****
 44 47 0 0 0
SMALL
GASTEIGER

@<TRIPOS>ATOM
      1 C          60.6729   88.4803    9.1948 C.3     1  UNL1        0.0965
      2 C          61.4555   89.7593    9.2339 C.3     1  UNL1        0.0746
      3 N          62.3577   90.0513   10.3961 N.3     1  UNL1       -0.3207
      4 H          61.7975   90.1680   11.2405 H       1  UNL1        0.1189
      5 H          62.8806   90.9078   10.2138 H       1  UNL1        0.1189
      6 N          61.4217   86.2040   10.1987 N.am    1  UNL1       -0.2770
      7 C          60.7338   87.5281   10.3522 C.2     1  UNL1        0.2270
      8 O          60.1068   87.8999   11.6632 O.2     1  UNL1       -0.2748
      9 C          62.0487   85.8322    8.8876 C.3     1  UNL1        0.0758
     10 C          63.2703   85.5312    8.0709 C.3     1  UNL1        0.0215
     11 C          61.9131   85.4892    7.4337 C.3     1  UNL1        0.0215
     12 C          61.4827   85.2517   11.3560 C.3     1  UNL1        0.1209
     13 C          64.1107   86.7467   13.9267 C.ar    1  UNL1       -0.0223
     14 C          64.8705   85.5104   14.3065 C.ar    1  UNL1       -0.0034
     15 C          64.5010   84.1879   13.7028 C.ar    1  UNL1        0.0108
     16 C          63.3718   84.1016   12.7193 C.ar    1  UNL1        0.0553
     17 CL         63.0023   82.7791   12.1156 Cl      1  UNL1       -0.0825
     18 C          62.6120   85.3379   12.3395 C.ar    1  UNL1        0.0079
     19 C          62.9815   86.6604   12.9432 C.ar    1  UNL1       -0.0060
     20 C          64.4802   88.0692   14.5304 C.3     1  UNL1        0.0289
     21 C          64.0304   89.3430   13.8786 C.3     1  UNL1        0.0367
     22 C          64.6366   90.6515   14.2914 C.3     1  UNL1        0.1426
     23 C          65.5056   92.5166   12.7051 C.3     1  UNL1        0.1741
     24 O          64.3846   91.8852   13.4763 O.3     1  UNL1       -0.3511
     25 C          59.8293   88.1535    7.9983 C.3     1  UNL1        0.0368
     26 C          59.5424   89.2091    6.9720 C.ar    1  UNL1       -0.0215
     27 C          60.6708   89.8503    6.2200 C.ar    1  UNL1       -0.0011
     28 C          60.3840   90.9059    5.1937 C.ar    1  UNL1        0.0366
     29 C          58.9686   91.3203    4.9193 C.ar    1  UNL1        0.1387
     30 C          57.8402   90.6790    5.6712 C.ar    1  UNL1        0.0366
     31 C          58.1272   89.6233    6.6976 C.ar    1  UNL1       -0.0011
     32 O          58.6818   92.3758    3.8929 O.3     1  UNL1       -0.4714
     33 C          59.7956   92.9286    3.0540 C.3     1  UNL1        0.2525
     34 C          59.7401   92.8083    1.5599 C.3     1  UNL1        0.2525
     35 O          60.9304   92.2967    0.8039 O.3     1  UNL1       -0.4697
     36 C          62.0921   93.2052    0.5301 C.ar    1  UNL1        0.1596
     37 C          63.3155   93.1400    1.3957 C.ar    1  UNL1        0.0921
     38 CL         63.3770   92.1663    2.5351 Cl      1  UNL1       -0.0791
     39 C          64.4772   94.0485    1.1220 C.ar    1  UNL1        0.0103
     40 C          64.4156   95.0223   -0.0174 C.ar    1  UNL1       -0.0200
     41 C          65.5774   95.9307   -0.2911 C.3     1  UNL1        0.0311
     42 C          63.1923   95.0874   -0.8830 C.ar    1  UNL1        0.0103
     43 C          62.0305   94.1789   -0.6092 C.ar    1  UNL1        0.0921
     44 CL         60.8072   94.2441   -1.4748 Cl      1  UNL1       -0.0791
@<TRIPOS>BOND
     1    23    24    1
     2    24    22    1
     3    22    21    1
     4    21    20    1
     5    20    13    1
     6    13    14   ar
     7    14    15   ar
     8    15    16   ar
     9    16    17    1
    10    16    18   ar
    11    18    12    1
    12    12     6    1
    13     6     7   am
    14     7     8    2
    15     7     1    1
    16     1     2    1
    17     2     3    1
    18     1    25    1
    19    25    26    1
    20    26    27   ar
    21    27    28   ar
    22    28    29   ar
    23    29    32    1
    24    32    33    1
    25    33    34    1
    26    34    35    1
    27    35    36    1
    28    36    37   ar
    29    37    38    1
    30    37    39   ar
    31    39    40   ar
    32    40    41    1
    33    40    42   ar
    34    42    43   ar
    35    43    44    1
    36    29    30   ar
    37    30    31   ar
    38     6     9    1
    39     9    10    1
    40    10    11    1
    41    18    19   ar
    42    19    13   ar
    43    31    26   ar
    44    11     9    1
    45    43    36   ar
    46     3     4    1
    47     3     5    1
@<TRIPOS>MOLECULE
*****
 44 47 0 0 0
SMALL
GASTEIGER

@<TRIPOS>ATOM
      1 C          60.3388   88.2380    8.6038 C.3     1  UNL1        0.0965
      2 C          61.3265   87.1324    8.3756 C.3     1  UNL1        0.0746
      3 N          60.9304   85.9257    7.5775 N.3     1  UNL1       -0.3207
      4 H          60.2081   85.4086    8.0789 H       1  UNL1        0.1189
      5 H          61.7444   85.3265    7.4405 H       1  UNL1        0.1189
      6 N          61.1816   88.7368   11.0102 N.am    1  UNL1       -0.2770
      7 C          60.5389   89.2006    9.7367 C.2     1  UNL1        0.2270
      8 O          60.0964   90.6269    9.5960 O.2     1  UNL1       -0.2748
      9 C          61.6242   87.3105   11.1508 C.3     1  UNL1        0.0758
     10 C          62.6823   86.3074   11.5031 C.3     1  UNL1        0.0215
     11 C          61.3326   85.8431   11.0421 C.3     1  UNL1        0.0215
     12 C          61.3817   89.6994   12.1431 C.3     1  UNL1        0.1209
     13 C          64.5735   91.9343   11.3895 C.ar    1  UNL1       -0.0223
     14 C          65.3443   91.7670   12.6653 C.ar    1  UNL1       -0.0034
     15 C          64.7943   90.9105   13.7671 C.ar    1  UNL1        0.0108
     16 C          63.4735   90.2213   13.5930 C.ar    1  UNL1        0.0553
     17 CL         62.9234   89.3649   14.6948 Cl      1  UNL1       -0.0825
     18 C          62.7027   90.3886   12.3172 C.ar    1  UNL1        0.0079
     19 C          63.2527   91.2451   11.2154 C.ar    1  UNL1       -0.0060
     20 C          65.1236   92.7908   10.2877 C.3     1  UNL1        0.0289
     21 C          66.0294   93.9412   10.6131 C.3     1  UNL1        0.0367
     22 C          67.0874   94.3622    9.6367 C.3     1  UNL1        0.1426
     23 C          68.4360   92.1575    9.9023 C.3     1  UNL1        0.1741
     24 O          68.3901   93.6210    9.5763 O.3     1  UNL1       -0.3511
     25 C          59.1509   88.3810    7.6990 C.3     1  UNL1        0.0368
     26 C          59.1205   89.4696    6.6676 C.ar    1  UNL1       -0.0215
     27 C          57.8099   90.0596    6.2383 C.ar    1  UNL1       -0.0011
     28 C          57.7795   91.1483    5.2069 C.ar    1  UNL1        0.0366
     29 C          59.0597   91.6470    4.6047 C.ar    1  UNL1        0.1387
     30 C          60.3702   91.0570    5.0341 C.ar    1  UNL1        0.0366
     31 C          60.4006   89.9683    6.0655 C.ar    1  UNL1       -0.0011
     32 O          59.0292   92.7357    3.5733 O.3     1  UNL1       -0.4714
     33 C          60.2172   92.9613    2.6857 C.3     1  UNL1        0.2525
     34 C          60.1067   92.7209    1.2093 C.3     1  UNL1        0.2525
     35 O          61.3162   92.3076    0.4241 O.3     1  UNL1       -0.4697
     36 C          62.4089   93.2988    0.1527 C.ar    1  UNL1        0.1596
     37 C          62.3103   94.2192   -1.0277 C.ar    1  UNL1        0.0921
     38 CL         61.1190   94.1484   -1.9365 Cl      1  UNL1       -0.0791
     39 C          63.4029   95.2104   -1.2992 C.ar    1  UNL1        0.0103
     40 C          64.5942   95.2812   -0.3903 C.ar    1  UNL1       -0.0200
     41 C          65.6868   96.2723   -0.6618 C.3     1  UNL1        0.0311
     42 C          64.6927   94.3608    0.7900 C.ar    1  UNL1        0.0103
     43 C          63.6001   93.3695    1.0615 C.ar    1  UNL1        0.0921
     44 CL         63.6987   92.4491    2.2418 Cl      1  UNL1       -0.0791
@<TRIPOS>BOND
     1    23    24    1
     2    24    22    1
     3    22    21    1
     4    21    20    1
     5    20    13    1
     6    13    14   ar
     7    14    15   ar
     8    15    16   ar
     9    16    17    1
    10    16    18   ar
    11    18    12    1
    12    12     6    1
    13     6     7   am
    14     7     8    2
    15     7     1    1
    16     1     2    1
    17     2     3    1
    18     1    25    1
    19    25    26    1
    20    26    27   ar
    21    27    28   ar
    22    28    29   ar
    23    29    32    1
    24    32    33    1
    25    33    34    1
    26    34    35    1
    27    35    36    1
    28    36    37   ar
    29    37    38    1
    30    37    39   ar
    31    39    40   ar
    32    40    41    1
    33    40    42   ar
    34    42    43   ar
    35    43    44    1
    36    29    30   ar
    37    30    31   ar
    38     6     9    1
    39     9    10    1
    40    10    11    1
    41    18    19   ar
    42    19    13   ar
    43    31    26   ar
    44    11     9    1
    45    43    36   ar
    46     3     4    1
    47     3     5    1
