@<TRIPOS>MOLECULE
*****
 40 43 0 0 0
SMALL
GASTEIGER

@<TRIPOS>ATOM
      1 C          64.1333   89.2733   13.1183 C.ar    1  UNL1        0.0053
      2 C          64.4661   89.0620   14.5655 C.ar    1  UNL1        0.0033
      3 C          64.2535   87.7174   15.1954 C.ar    1  UNL1        0.0382
      4 C          63.7081   86.5840   14.3780 C.ar    1  UNL1        0.1529
      5 C          63.3753   86.7954   12.9307 C.ar    1  UNL1        0.0881
      6 C          63.5880   88.1400   12.3009 C.ar    1  UNL1        0.0181
      7 N          62.8300   85.6620   12.1133 N.am    1  UNL1       -0.2529
      8 C          62.6173   84.3174   12.7432 C.2     1  UNL1        0.2697
      9 O          62.0719   83.1841   11.9258 O.2     1  UNL1       -0.2704
     10 C          62.9501   84.1061   14.1905 C.3     1  UNL1        0.2199
     11 C          63.1132   83.4182   15.5134 C.3     1  UNL1        0.0579
     12 O          63.4955   85.2394   15.0079 O.3     1  UNL1       -0.4686
     13 C          63.6582   90.9597   11.1999 C.ar    1  UNL1        0.0645
     14 N          63.8708   92.3043   10.5700 N.ar    1  UNL1       -0.2183
     15 C          64.7711   93.3072   11.2285 C.ar    1  UNL1        0.2145
     16 N          64.9837   94.6518   10.5986 N.pl3   1  UNL1       -0.3274
     17 N          65.4588   92.9655   12.5170 N.ar    1  UNL1       -0.1995
     18 C          65.2462   91.6208   13.1469 C.ar    1  UNL1        0.1293
     19 N          65.9340   91.2790   14.4354 N.pl3   1  UNL1       -0.3425
     20 C          64.3459   90.6180   12.4884 C.ar    1  UNL1        0.0449
     21 H          64.5323   94.8761    9.7529 H       1  UNL1        0.1452
     22 H          65.5746   95.3100   11.0309 H       1  UNL1        0.1452
     23 H          66.5249   91.9372   14.8677 H       1  UNL1        0.1437
     24 H          65.7945   90.3965   14.8489 H       1  UNL1        0.1437
     25 C          61.2900   90.2374   10.4125 C.3     1  UNL1        0.0067
     26 C          62.7579   89.9568   10.5413 C.3     1  UNL1        0.0460
     27 C          62.4614   82.7339   13.8325 C.ar    1  UNL1        0.0264
     28 C          61.2263   82.1844   14.4826 C.ar    1  UNL1        0.0293
     29 C          60.7375   80.8121   14.1246 C.ar    1  UNL1        0.1422
     30 F          59.5024   80.2627   14.7748 F       1  UNL1       -0.2041
     31 C          61.4838   79.9894   13.1166 C.ar    1  UNL1        0.0592
     32 C          62.7189   80.5389   12.4666 C.ar    1  UNL1        0.1422
     33 F          63.4652   79.7162   11.4585 F       1  UNL1       -0.2041
     34 C          63.2077   81.9111   12.8245 C.ar    1  UNL1        0.0293
     35 C          62.4972   85.8734   10.6661 C.3     1  UNL1        0.0985
     36 C          61.1522   86.4113   10.2766 C.3     1  UNL1        0.0245
     37 C          60.7196   86.3812    8.8405 C.3     1  UNL1        0.0335
     38 C          59.4601   87.0800    8.4219 C.3     1  UNL1        0.1372
     39 O          58.4859   86.3899    7.5139 O.3     1  UNL1       -0.3820
     40 H          58.8938   86.2557    6.6441 H       1  UNL1        0.2104
@<TRIPOS>BOND
     1    25    26    1
     2    26    13    1
     3    13    14   ar
     4    14    15   ar
     5    15    16    1
     6    15    17   ar
     7    17    18   ar
     8    18    19    1
     9    18    20   ar
    10    20     1    1
    11     1     2   ar
    12     2     3   ar
    13     3     4   ar
    14     4     5   ar
    15     5     6   ar
    16     5     7    1
    17     7    35    1
    18    35    36    1
    19    36    37    1
    20    37    38    1
    21    38    39    1
    22     7     8   am
    23     8     9    2
    24     8    10    1
    25    10    11    1
    26    10    27    1
    27    27    28   ar
    28    28    29   ar
    29    29    30    1
    30    29    31   ar
    31    31    32   ar
    32    32    33    1
    33    32    34   ar
    34    10    12    1
    35    20    13   ar
    36     6     1   ar
    37    34    27   ar
    38    12     4    1
    39    16    21    1
    40    16    22    1
    41    19    23    1
    42    19    24    1
    43    39    40    1
@<TRIPOS>MOLECULE
*****
 40 43 0 0 0
SMALL
GASTEIGER

@<TRIPOS>ATOM
      1 C          64.1304   89.2690   13.1160 C.ar    1  UNL1        0.0053
      2 C          64.4519   89.0592   14.5661 C.ar    1  UNL1        0.0033
      3 C          64.2347   87.7151   15.1955 C.ar    1  UNL1        0.0382
      4 C          63.6961   86.5808   14.3749 C.ar    1  UNL1        0.1529
      5 C          63.3746   86.7906   12.9249 C.ar    1  UNL1        0.0881
      6 C          63.5918   88.1347   12.2955 C.ar    1  UNL1        0.0181
      7 N          62.8360   85.6564   12.1044 N.am    1  UNL1       -0.2529
      8 C          62.6189   84.3123   12.7338 C.2     1  UNL1        0.2697
      9 O          62.0803   83.1780   11.9132 O.2     1  UNL1       -0.2704
     10 C          62.9404   84.1024   14.1839 C.3     1  UNL1        0.2199
     11 C          63.0932   83.4159   15.5088 C.3     1  UNL1        0.0579
     12 O          63.4790   85.2367   15.0045 O.3     1  UNL1       -0.4686
     13 C          65.2547   91.6111   13.1431 C.ar    1  UNL1        0.0645
     14 N          65.4719   92.9551   12.5137 N.ar    1  UNL1       -0.2183
     15 C          64.7818   93.3013   11.2275 C.ar    1  UNL1        0.2145
     16 N          64.9990   94.6454   10.5981 N.pl3   1  UNL1       -0.3274
     17 N          63.8746   92.3034   10.5709 N.ar    1  UNL1       -0.1995
     18 C          63.6575   90.9592   11.2005 C.ar    1  UNL1        0.1293
     19 N          62.7503   89.9613   10.5438 N.pl3   1  UNL1       -0.3425
     20 C          64.3475   90.6131   12.4865 C.ar    1  UNL1        0.0449
     21 H          65.5944   95.3004   11.0290 H       1  UNL1        0.1452
     22 H          64.5461   94.8726    9.7540 H       1  UNL1        0.1452
     23 H          62.2974   90.1885    9.6997 H       1  UNL1        0.1437
     24 H          62.6078   89.0791   10.9570 H       1  UNL1        0.1437
     25 C          67.3270   91.7802   14.7011 C.3     1  UNL1        0.0067
     26 C          65.9448   91.2649   14.4293 C.3     1  UNL1        0.0460
     27 C          62.4549   82.7297   13.8235 C.ar    1  UNL1        0.0264
     28 C          63.1994   81.9132   12.8091 C.ar    1  UNL1        0.0293
     29 C          62.7138   80.5404   12.4487 C.ar    1  UNL1        0.1422
     30 F          63.4585   79.7239   11.4343 F       1  UNL1       -0.2041
     31 C          61.4838   79.9843   13.1025 C.ar    1  UNL1        0.0592
     32 C          60.7393   80.8009   14.1168 C.ar    1  UNL1        0.1422
     33 F          59.5091   80.2447   14.7706 F       1  UNL1       -0.2041
     34 C          61.2247   82.1736   14.4773 C.ar    1  UNL1        0.0293
     35 C          62.5145   85.8662   10.6544 C.3     1  UNL1        0.0985
     36 C          61.1497   86.3387   10.2495 C.3     1  UNL1        0.0245
     37 C          60.7610   86.3555    8.8007 C.3     1  UNL1        0.0335
     38 C          59.6132   87.2052    8.3420 C.3     1  UNL1        0.1372
     39 O          58.3708   86.5601    7.8034 O.3     1  UNL1       -0.3820
     40 H          58.5774   86.1041    6.9725 H       1  UNL1        0.2104
@<TRIPOS>BOND
     1    25    26    1
     2    26    13    1
     3    13    14   ar
     4    14    15   ar
     5    15    16    1
     6    15    17   ar
     7    17    18   ar
     8    18    19    1
     9    18    20   ar
    10    20     1    1
    11     1     2   ar
    12     2     3   ar
    13     3     4   ar
    14     4     5   ar
    15     5     6   ar
    16     5     7    1
    17     7    35    1
    18    35    36    1
    19    36    37    1
    20    37    38    1
    21    38    39    1
    22     7     8   am
    23     8     9    2
    24     8    10    1
    25    10    11    1
    26    10    27    1
    27    27    28   ar
    28    28    29   ar
    29    29    30    1
    30    29    31   ar
    31    31    32   ar
    32    32    33    1
    33    32    34   ar
    34    10    12    1
    35    20    13   ar
    36     6     1   ar
    37    34    27   ar
    38    12     4    1
    39    16    21    1
    40    16    22    1
    41    19    23    1
    42    19    24    1
    43    39    40    1
@<TRIPOS>MOLECULE
*****
 40 43 0 0 0
SMALL
GASTEIGER

@<TRIPOS>ATOM
      1 C          64.6377   90.1385   13.7059 C.ar    1  UNL1        0.0053
      2 C          63.7027   90.4308   12.5699 C.ar    1  UNL1        0.0033
      3 C          62.9720   89.3096   11.8926 C.ar    1  UNL1        0.0382
      4 C          63.1762   87.8961   12.3511 C.ar    1  UNL1        0.1529
      5 C          64.1112   87.6038   13.4871 C.ar    1  UNL1        0.0881
      6 C          64.8419   88.7250   14.1644 C.ar    1  UNL1        0.0181
      7 N          64.3154   86.1903   13.9456 N.am    1  UNL1       -0.2529
      8 C          63.5847   85.0691   13.2683 C.2     1  UNL1        0.2697
      9 O          63.7890   83.6555   13.7269 O.2     1  UNL1       -0.2704
     10 C          62.6497   85.3613   12.1323 C.3     1  UNL1        0.2199
     11 C          61.6672   85.1354   11.0216 C.3     1  UNL1        0.0579
     12 O          62.4455   86.7748   11.6737 O.3     1  UNL1       -0.4686
     13 C          66.5045   91.9453   13.6837 C.ar    1  UNL1        0.0645
     14 N          67.2353   93.0665   14.3611 N.ar    1  UNL1       -0.2183
     15 C          66.8300   93.5022   15.7381 C.ar    1  UNL1        0.2145
     16 N          67.5608   94.6234   16.4154 N.pl3   1  UNL1       -0.3274
     17 N          65.6939   92.8167   16.4376 N.ar    1  UNL1       -0.1995
     18 C          64.9631   91.6954   15.7602 C.ar    1  UNL1        0.1293
     19 N          63.8270   91.0099   16.4597 N.pl3   1  UNL1       -0.3425
     20 C          65.3684   91.2598   14.3833 C.ar    1  UNL1        0.0449
     21 H          68.3064   95.0733   15.9563 H       1  UNL1        0.1452
     22 H          67.2947   94.9094   17.3191 H       1  UNL1        0.1452
     23 H          63.5610   91.2959   17.3634 H       1  UNL1        0.1437
     24 H          63.3474   90.2740   16.0151 H       1  UNL1        0.1437
     25 C          66.8508   92.4807   11.1651 C.3     1  UNL1        0.0067
     26 C          66.9098   91.5096   12.3068 C.3     1  UNL1        0.0460
     27 C          62.5127   83.8694   12.2051 C.ar    1  UNL1        0.0264
     28 C          61.8740   83.2325   13.4036 C.ar    1  UNL1        0.0293
     29 C          61.7370   81.7405   13.4765 C.ar    1  UNL1        0.1422
     30 F          61.0982   81.1037   14.6750 F       1  UNL1       -0.2041
     31 C          62.2387   80.8855   12.3509 C.ar    1  UNL1        0.0592
     32 C          62.8775   81.5223   11.1524 C.ar    1  UNL1        0.1422
     33 F          63.3792   80.6672   10.0268 F       1  UNL1       -0.2041
     34 C          63.0145   83.0143   11.0795 C.ar    1  UNL1        0.0293
     35 C          65.2504   85.8980   15.0816 C.3     1  UNL1        0.0985
     36 C          64.7023   85.5248   16.4271 C.3     1  UNL1        0.0245
     37 C          63.2418   85.7050   16.7182 C.3     1  UNL1        0.0335
     38 C          62.7744   86.8967   17.5001 C.3     1  UNL1        0.1372
     39 O          62.7776   88.2568   16.8678 O.3     1  UNL1       -0.3820
     40 H          63.6916   88.5282   16.6892 H       1  UNL1        0.2104
@<TRIPOS>BOND
     1    25    26    1
     2    26    13    1
     3    13    14   ar
     4    14    15   ar
     5    15    16    1
     6    15    17   ar
     7    17    18   ar
     8    18    19    1
     9    18    20   ar
    10    20     1    1
    11     1     2   ar
    12     2     3   ar
    13     3     4   ar
    14     4     5   ar
    15     5     6   ar
    16     5     7    1
    17     7    35    1
    18    35    36    1
    19    36    37    1
    20    37    38    1
    21    38    39    1
    22     7     8   am
    23     8     9    2
    24     8    10    1
    25    10    11    1
    26    10    27    1
    27    27    28   ar
    28    28    29   ar
    29    29    30    1
    30    29    31   ar
    31    31    32   ar
    32    32    33    1
    33    32    34   ar
    34    10    12    1
    35    20    13   ar
    36     6     1   ar
    37    34    27   ar
    38    12     4    1
    39    16    21    1
    40    16    22    1
    41    19    23    1
    42    19    24    1
    43    39    40    1
@<TRIPOS>MOLECULE
*****
 40 43 0 0 0
SMALL
GASTEIGER

@<TRIPOS>ATOM
      1 C          64.6760   90.1633   13.7187 C.ar    1  UNL1        0.0053
      2 C          63.7504   90.4603   12.5764 C.ar    1  UNL1        0.0033
      3 C          63.0165   89.3431   11.8958 C.ar    1  UNL1        0.0382
      4 C          63.2081   87.9289   12.3577 C.ar    1  UNL1        0.1529
      5 C          64.1337   87.6319   13.5001 C.ar    1  UNL1        0.0881
      6 C          64.8676   88.7491   14.1806 C.ar    1  UNL1        0.0181
      7 N          64.3253   86.2177   13.9619 N.am    1  UNL1       -0.2529
      8 C          63.5914   85.1005   13.2814 C.2     1  UNL1        0.2697
      9 O          63.7830   83.6863   13.7432 O.2     1  UNL1       -0.2704
     10 C          62.6657   85.3975   12.1389 C.3     1  UNL1        0.2199
     11 C          61.6889   85.1767   11.0223 C.3     1  UNL1        0.0579
     12 O          62.4741   86.8117   11.6771 O.3     1  UNL1       -0.4686
     13 C          66.5545   91.9580   13.7057 C.ar    1  UNL1        0.0645
     14 N          67.2885   93.0752   14.3862 N.ar    1  UNL1       -0.2183
     15 C          66.8780   93.5149   15.7604 C.ar    1  UNL1        0.2145
     16 N          67.6120   94.6321   16.4409 N.pl3   1  UNL1       -0.3274
     17 N          65.7335   92.8374   16.4540 N.ar    1  UNL1       -0.1995
     18 C          64.9995   91.7201   15.7734 C.ar    1  UNL1        0.1293
     19 N          63.8550   91.0426   16.4670 N.pl3   1  UNL1       -0.3425
     20 C          65.4100   91.2805   14.3993 C.ar    1  UNL1        0.0449
     21 H          68.3632   95.0767   15.9857 H       1  UNL1        0.1452
     22 H          67.3426   94.9206   17.3428 H       1  UNL1        0.1452
     23 H          63.5855   91.3312   17.3688 H       1  UNL1        0.1437
     24 H          63.3732   90.3094   16.0203 H       1  UNL1        0.1437
     25 C          66.7679   92.4349   11.1607 C.3     1  UNL1        0.0067
     26 C          66.9650   91.5183   12.3316 C.3     1  UNL1        0.0460
     27 C          62.5181   83.9066   12.2130 C.ar    1  UNL1        0.0264
     28 C          63.0079   83.0475   11.0851 C.ar    1  UNL1        0.0293
     29 C          62.8602   81.5566   11.1592 C.ar    1  UNL1        0.1422
     30 F          63.3501   80.6975   10.0312 F       1  UNL1       -0.2041
     31 C          62.2229   80.9248   12.3610 C.ar    1  UNL1        0.0592
     32 C          61.7331   81.7839   13.4889 C.ar    1  UNL1        0.1422
     33 F          61.0957   81.1521   14.6908 F       1  UNL1       -0.2041
     34 C          61.8807   83.2748   13.4149 C.ar    1  UNL1        0.0293
     35 C          65.2509   85.9207   15.1043 C.3     1  UNL1        0.0985
     36 C          64.6933   85.4969   16.4307 C.3     1  UNL1        0.0245
     37 C          63.2390   85.7051   16.7340 C.3     1  UNL1        0.0335
     38 C          62.8002   86.9099   17.5123 C.3     1  UNL1        0.1372
     39 O          62.7715   88.2578   16.8550 O.3     1  UNL1       -0.3820
     40 H          63.6761   88.5286   16.6329 H       1  UNL1        0.2104
@<TRIPOS>BOND
     1    25    26    1
     2    26    13    1
     3    13    14   ar
     4    14    15   ar
     5    15    16    1
     6    15    17   ar
     7    17    18   ar
     8    18    19    1
     9    18    20   ar
    10    20     1    1
    11     1     2   ar
    12     2     3   ar
    13     3     4   ar
    14     4     5   ar
    15     5     6   ar
    16     5     7    1
    17     7    35    1
    18    35    36    1
    19    36    37    1
    20    37    38    1
    21    38    39    1
    22     7     8   am
    23     8     9    2
    24     8    10    1
    25    10    11    1
    26    10    27    1
    27    27    28   ar
    28    28    29   ar
    29    29    30    1
    30    29    31   ar
    31    31    32   ar
    32    32    33    1
    33    32    34   ar
    34    10    12    1
    35    20    13   ar
    36     6     1   ar
    37    34    27   ar
    38    12     4    1
    39    16    21    1
    40    16    22    1
    41    19    23    1
    42    19    24    1
    43    39    40    1
@<TRIPOS>MOLECULE
*****
 40 43 0 0 0
SMALL
GASTEIGER

@<TRIPOS>ATOM
      1 C          65.4371   90.8154   14.1138 C.ar    1  UNL1        0.0053
      2 C          65.0952   89.5610   14.8618 C.ar    1  UNL1        0.0033
      3 C          64.1407   88.5691   14.2659 C.ar    1  UNL1        0.0382
      4 C          63.5283   88.8316   12.9220 C.ar    1  UNL1        0.1529
      5 C          63.8703   90.0860   12.1740 C.ar    1  UNL1        0.0881
      6 C          64.8247   91.0779   12.7699 C.ar    1  UNL1        0.0181
      7 N          63.2578   90.3485   10.8302 N.am    1  UNL1       -0.2529
      8 C          62.3034   89.3566   10.2343 C.2     1  UNL1        0.2697
      9 O          61.6909   89.6191    8.8904 O.2     1  UNL1       -0.2704
     10 C          61.9613   88.1021   10.9822 C.3     1  UNL1        0.2199
     11 C          61.3306   86.7793   11.3021 C.3     1  UNL1        0.0579
     12 O          62.5738   87.8396   12.3261 O.3     1  UNL1       -0.4686
     13 C          67.7246   92.0463   14.0647 C.ar    1  UNL1        0.0645
     14 N          68.6791   93.0382   14.6606 N.ar    1  UNL1       -0.2183
     15 C          68.3006   93.7913   15.9014 C.ar    1  UNL1        0.2145
     16 N          69.2550   94.7832   16.4973 N.pl3   1  UNL1       -0.3274
     17 N          66.9676   93.5523   16.5464 N.ar    1  UNL1       -0.1995
     18 C          66.0131   92.5603   15.9505 C.ar    1  UNL1        0.1293
     19 N          64.6801   92.3214   16.5955 N.pl3   1  UNL1       -0.3425
     20 C          66.3916   91.8074   14.7097 C.ar    1  UNL1        0.0449
     21 H          70.1299   94.9400   16.0739 H       1  UNL1        0.1452
     22 H          69.0066   95.2774   17.3117 H       1  UNL1        0.1452
     23 H          64.4316   92.8156   17.4099 H       1  UNL1        0.1437
     24 H          64.0536   91.6704   16.2044 H       1  UNL1        0.1437
     25 C          68.3659   92.0354   11.5470 C.3     1  UNL1        0.0067
     26 C          68.1031   91.2933   12.8238 C.3     1  UNL1        0.0460
     27 C          61.1299   87.9052    9.7495 C.ar    1  UNL1        0.0264
     28 C          61.1348   86.5809    9.0450 C.ar    1  UNL1        0.0293
     29 C          60.3033   86.3840    7.8122 C.ar    1  UNL1        0.1422
     30 F          60.3083   85.0596    7.1078 F       1  UNL1       -0.2041
     31 C          59.4668   87.5114    7.2838 C.ar    1  UNL1        0.0592
     32 C          59.4618   88.8356    7.9882 C.ar    1  UNL1        0.1422
     33 F          58.6253   89.9631    7.4598 F       1  UNL1       -0.2041
     34 C          60.2933   89.0326    9.2210 C.ar    1  UNL1        0.0293
     35 C          63.5998   91.6029   10.0822 C.3     1  UNL1        0.0985
     36 C          64.9072   92.2936   10.3343 C.3     1  UNL1        0.0245
     37 C          64.9958   93.7882   10.2425 C.3     1  UNL1        0.0335
     38 C          66.0350   94.5278   11.0318 C.3     1  UNL1        0.1372
     39 O          65.9549   94.5633   12.5292 O.3     1  UNL1       -0.3820
     40 H          65.1646   95.0567   12.7991 H       1  UNL1        0.2104
@<TRIPOS>BOND
     1    25    26    1
     2    26    13    1
     3    13    14   ar
     4    14    15   ar
     5    15    16    1
     6    15    17   ar
     7    17    18   ar
     8    18    19    1
     9    18    20   ar
    10    20     1    1
    11     1     2   ar
    12     2     3   ar
    13     3     4   ar
    14     4     5   ar
    15     5     6   ar
    16     5     7    1
    17     7    35    1
    18    35    36    1
    19    36    37    1
    20    37    38    1
    21    38    39    1
    22     7     8   am
    23     8     9    2
    24     8    10    1
    25    10    11    1
    26    10    27    1
    27    27    28   ar
    28    28    29   ar
    29    29    30    1
    30    29    31   ar
    31    31    32   ar
    32    32    33    1
    33    32    34   ar
    34    10    12    1
    35    20    13   ar
    36     6     1   ar
    37    34    27   ar
    38    12     4    1
    39    16    21    1
    40    16    22    1
    41    19    23    1
    42    19    24    1
    43    39    40    1
@<TRIPOS>MOLECULE
*****
 40 43 0 0 0
SMALL
GASTEIGER

@<TRIPOS>ATOM
      1 C          62.6711   84.1074   12.4523 C.ar    1  UNL1        0.0053
      2 C          61.9297   84.7952   11.3446 C.ar    1  UNL1        0.0033
      3 C          62.0082   86.2863   11.2024 C.ar    1  UNL1        0.0382
      4 C          62.8281   87.0897   12.1680 C.ar    1  UNL1        0.1529
      5 C          63.5695   86.4019   13.2758 C.ar    1  UNL1        0.0881
      6 C          63.4910   84.9107   13.4179 C.ar    1  UNL1        0.0181
      7 N          64.3894   87.2052   14.2414 N.am    1  UNL1       -0.2529
      8 C          64.4679   88.6964   14.0992 C.2     1  UNL1        0.2697
      9 O          65.2878   89.4997   15.0648 O.2     1  UNL1       -0.2704
     10 C          63.7265   89.3843   12.9914 C.3     1  UNL1        0.2199
     11 C          63.2072   90.4837   12.1130 C.3     1  UNL1        0.0579
     12 O          62.9066   88.5809   12.0258 O.3     1  UNL1       -0.4686
     13 C          62.9726   81.7320   11.4440 C.ar    1  UNL1        0.0645
     14 N          62.8942   80.2409   11.5861 N.ar    1  UNL1       -0.2183
     15 C          62.4356   79.6338   12.8789 C.ar    1  UNL1        0.2145
     16 N          62.3572   78.1426   13.0211 N.pl3   1  UNL1       -0.3274
     17 N          62.0556   80.5179   14.0295 N.ar    1  UNL1       -0.1995
     18 C          62.1341   82.0091   13.8873 C.ar    1  UNL1        0.1293
     19 N          61.7540   82.8933   15.0379 N.pl3   1  UNL1       -0.3425
     20 C          62.5926   82.6162   12.5946 C.ar    1  UNL1        0.0449
     21 H          62.6066   77.5623   12.2659 H       1  UNL1        0.1452
     22 H          62.0562   77.7442   13.8696 H       1  UNL1        0.1452
     23 H          61.4530   82.4949   15.8864 H       1  UNL1        0.1437
     24 H          61.8055   83.8720   14.9446 H       1  UNL1        0.1437
     25 C          64.7331   83.0817   10.0915 C.3     1  UNL1        0.0067
     26 C          63.4312   82.3391   10.1512 C.3     1  UNL1        0.0460
     27 C          64.3661   90.5694   13.6519 C.ar    1  UNL1        0.0264
     28 C          65.3465   91.4129   12.8923 C.ar    1  UNL1        0.0293
     29 C          65.9861   92.5981   13.5529 C.ar    1  UNL1        0.1422
     30 F          66.9666   93.4416   12.7931 F       1  UNL1       -0.2041
     31 C          65.6452   92.9398   14.9730 C.ar    1  UNL1        0.0592
     32 C          64.6648   92.0962   15.7327 C.ar    1  UNL1        0.1422
     33 F          64.3239   92.4379   17.1529 F       1  UNL1       -0.2041
     34 C          64.0252   90.9110   15.0722 C.ar    1  UNL1        0.0293
     35 C          65.1308   86.5174   15.3492 C.3     1  UNL1        0.0985
     36 C          64.3870   85.6615   16.3311 C.3     1  UNL1        0.0245
     37 C          63.0084   86.0533   16.7741 C.3     1  UNL1        0.0335
     38 C          62.8242   87.1910   17.7342 C.3     1  UNL1        0.1372
     39 O          63.1628   88.5902   17.3129 O.3     1  UNL1       -0.3820
     40 H          64.1182   88.6597   17.1603 H       1  UNL1        0.2104
@<TRIPOS>BOND
     1    25    26    1
     2    26    13    1
     3    13    14   ar
     4    14    15   ar
     5    15    16    1
     6    15    17   ar
     7    17    18   ar
     8    18    19    1
     9    18    20   ar
    10    20     1    1
    11     1     2   ar
    12     2     3   ar
    13     3     4   ar
    14     4     5   ar
    15     5     6   ar
    16     5     7    1
    17     7    35    1
    18    35    36    1
    19    36    37    1
    20    37    38    1
    21    38    39    1
    22     7     8   am
    23     8     9    2
    24     8    10    1
    25    10    11    1
    26    10    27    1
    27    27    28   ar
    28    28    29   ar
    29    29    30    1
    30    29    31   ar
    31    31    32   ar
    32    32    33    1
    33    32    34   ar
    34    10    12    1
    35    20    13   ar
    36     6     1   ar
    37    34    27   ar
    38    12     4    1
    39    16    21    1
    40    16    22    1
    41    19    23    1
    42    19    24    1
    43    39    40    1
@<TRIPOS>MOLECULE
*****
 40 43 0 0 0
SMALL
GASTEIGER

@<TRIPOS>ATOM
      1 C          62.7743   84.1187   11.7607 C.ar    1  UNL1        0.0053
      2 C          62.0125   84.9416   10.7645 C.ar    1  UNL1        0.0033
      3 C          62.0342   86.4386   10.8554 C.ar    1  UNL1        0.0382
      4 C          62.8178   87.1128   11.9424 C.ar    1  UNL1        0.1529
      5 C          63.5796   86.2898   12.9386 C.ar    1  UNL1        0.0881
      6 C          63.5578   84.7928   12.8478 C.ar    1  UNL1        0.0181
      7 N          64.3631   86.9640   14.0257 N.am    1  UNL1       -0.2529
      8 C          64.3848   88.4610   14.1165 C.2     1  UNL1        0.2697
      9 O          65.1683   89.1351   15.2036 O.2     1  UNL1       -0.2704
     10 C          63.6230   89.2840   13.1203 C.3     1  UNL1        0.2199
     11 C          63.0661   90.4861   12.4168 C.3     1  UNL1        0.0579
     12 O          62.8395   88.6099   12.0333 O.3     1  UNL1       -0.4686
     13 C          62.1959   81.8095   12.8016 C.ar    1  UNL1        0.0645
     14 N          62.1742   80.3124   12.7108 N.ar    1  UNL1       -0.2183
     15 C          62.7092   79.6273   11.4883 C.ar    1  UNL1        0.2145
     16 N          62.6875   78.1303   11.3975 N.pl3   1  UNL1       -0.3274
     17 N          63.2659   80.4393   10.3566 N.ar    1  UNL1       -0.1995
     18 C          63.2876   81.9365   10.4474 C.ar    1  UNL1        0.1293
     19 N          63.8443   82.7485    9.3157 N.pl3   1  UNL1       -0.3425
     20 C          62.7526   82.6215   11.6699 C.ar    1  UNL1        0.0449
     21 H          62.3221   77.5973   12.1403 H       1  UNL1        0.1452
     22 H          63.0386   77.6806   10.5952 H       1  UNL1        0.1452
     23 H          64.1954   82.2989    8.5134 H       1  UNL1        0.1437
     24 H          63.8585   83.7311    9.3753 H       1  UNL1        0.1437
     25 C          62.5412   82.6832   15.2239 C.3     1  UNL1        0.0067
     26 C          61.6609   82.4946   14.0241 C.3     1  UNL1        0.0460
     27 C          64.2131   90.3756   13.9630 C.ar    1  UNL1        0.0264
     28 C          63.6653   90.6445   15.3332 C.ar    1  UNL1        0.0293
     29 C          64.2555   91.7362   16.1760 C.ar    1  UNL1        0.1422
     30 F          63.7076   92.0050   17.5463 F       1  UNL1       -0.2041
     31 C          65.3934   92.5588   15.6485 C.ar    1  UNL1        0.0592
     32 C          65.9412   92.2898   14.2783 C.ar    1  UNL1        0.1422
     33 F          67.0791   93.1125   13.7507 F       1  UNL1       -0.2041
     34 C          65.3511   91.1983   13.4355 C.ar    1  UNL1        0.0293
     35 C          65.1249   86.1410   15.0218 C.3     1  UNL1        0.0985
     36 C          64.4107   85.5245   16.1880 C.3     1  UNL1        0.0245
     37 C          63.0135   85.9545   16.5244 C.3     1  UNL1        0.0335
     38 C          62.7706   86.8742   17.6841 C.3     1  UNL1        0.1372
     39 O          63.1194   88.3289   17.5736 O.3     1  UNL1       -0.3820
     40 H          64.0809   88.4253   17.4886 H       1  UNL1        0.2104
@<TRIPOS>BOND
     1    25    26    1
     2    26    13    1
     3    13    14   ar
     4    14    15   ar
     5    15    16    1
     6    15    17   ar
     7    17    18   ar
     8    18    19    1
     9    18    20   ar
    10    20     1    1
    11     1     2   ar
    12     2     3   ar
    13     3     4   ar
    14     4     5   ar
    15     5     6   ar
    16     5     7    1
    17     7    35    1
    18    35    36    1
    19    36    37    1
    20    37    38    1
    21    38    39    1
    22     7     8   am
    23     8     9    2
    24     8    10    1
    25    10    11    1
    26    10    27    1
    27    27    28   ar
    28    28    29   ar
    29    29    30    1
    30    29    31   ar
    31    31    32   ar
    32    32    33    1
    33    32    34   ar
    34    10    12    1
    35    20    13   ar
    36     6     1   ar
    37    34    27   ar
    38    12     4    1
    39    16    21    1
    40    16    22    1
    41    19    23    1
    42    19    24    1
    43    39    40    1
@<TRIPOS>MOLECULE
*****
 40 43 0 0 0
SMALL
GASTEIGER

@<TRIPOS>ATOM
      1 C          64.1014   89.6442   13.3559 C.ar    1  UNL1        0.0053
      2 C          64.1413   89.6257   14.8553 C.ar    1  UNL1        0.0033
      3 C          63.8638   88.3520   15.5972 C.ar    1  UNL1        0.0382
      4 C          63.5464   87.0967   14.8399 C.ar    1  UNL1        0.1529
      5 C          63.5065   87.1152   13.3405 C.ar    1  UNL1        0.0881
      6 C          63.7840   88.3889   12.5986 C.ar    1  UNL1        0.0181
      7 N          63.1891   85.8600   12.5832 N.am    1  UNL1       -0.2529
      8 C          62.9116   84.5862   13.3251 C.2     1  UNL1        0.2697
      9 O          62.5942   83.3310   12.5677 O.2     1  UNL1       -0.2704
     10 C          62.9515   84.5677   14.8245 C.3     1  UNL1        0.2199
     11 C          62.8715   84.0509   16.2304 C.3     1  UNL1        0.0579
     12 O          63.2689   85.8229   15.5819 O.3     1  UNL1       -0.4686
     13 C          63.6555   91.2129   11.3334 C.ar    1  UNL1        0.0645
     14 N          63.9329   92.4866   10.5914 N.ar    1  UNL1       -0.2183
     15 C          64.9339   93.4655   11.1298 C.ar    1  UNL1        0.2145
     16 N          65.2114   94.7391   10.3878 N.pl3   1  UNL1       -0.3274
     17 N          65.6574   93.1706   12.4103 N.ar    1  UNL1       -0.1995
     18 C          65.3799   91.8968   13.1523 C.ar    1  UNL1        0.1293
     19 N          66.1034   91.6019   14.4328 N.pl3   1  UNL1       -0.3425
     20 C          64.3789   90.9180   12.6139 C.ar    1  UNL1        0.0449
     21 H          64.7366   94.9327    9.5474 H       1  UNL1        0.1452
     22 H          65.8684   95.3816   10.7412 H       1  UNL1        0.1452
     23 H          66.7604   92.2443   14.7862 H       1  UNL1        0.1437
     24 H          65.9213   90.7659   14.9198 H       1  UNL1        0.1437
     25 C          61.1916   90.4357   11.0584 C.3     1  UNL1        0.0067
     26 C          62.6544   90.2340   10.7950 C.3     1  UNL1        0.0460
     27 C          62.6063   83.1330   14.5554 C.ar    1  UNL1        0.0264
     28 C          63.6979   82.1227   14.3614 C.ar    1  UNL1        0.0293
     29 C          63.3526   80.6879   14.0923 C.ar    1  UNL1        0.1422
     30 F          64.4443   79.6776   13.8983 F       1  UNL1       -0.2041
     31 C          61.9160   80.2635   14.0172 C.ar    1  UNL1        0.0592
     32 C          60.8244   81.2739   14.2112 C.ar    1  UNL1        0.1422
     33 F          59.3876   80.8495   14.1360 F       1  UNL1       -0.2041
     34 C          61.1695   82.7086   14.4803 C.ar    1  UNL1        0.0293
     35 C          63.1492   85.8785   11.0838 C.3     1  UNL1        0.0985
     36 C          62.7259   84.6529   10.3297 C.3     1  UNL1        0.0245
     37 C          63.7407   83.8541    9.5665 C.3     1  UNL1        0.0335
     38 C          64.2652   82.5689   10.1350 C.3     1  UNL1        0.1372
     39 O          65.1850   82.5929   11.3196 O.3     1  UNL1       -0.3820
     40 H          66.0226   83.0137   11.0701 H       1  UNL1        0.2104
@<TRIPOS>BOND
     1    25    26    1
     2    26    13    1
     3    13    14   ar
     4    14    15   ar
     5    15    16    1
     6    15    17   ar
     7    17    18   ar
     8    18    19    1
     9    18    20   ar
    10    20     1    1
    11     1     2   ar
    12     2     3   ar
    13     3     4   ar
    14     4     5   ar
    15     5     6   ar
    16     5     7    1
    17     7    35    1
    18    35    36    1
    19    36    37    1
    20    37    38    1
    21    38    39    1
    22     7     8   am
    23     8     9    2
    24     8    10    1
    25    10    11    1
    26    10    27    1
    27    27    28   ar
    28    28    29   ar
    29    29    30    1
    30    29    31   ar
    31    31    32   ar
    32    32    33    1
    33    32    34   ar
    34    10    12    1
    35    20    13   ar
    36     6     1   ar
    37    34    27   ar
    38    12     4    1
    39    16    21    1
    40    16    22    1
    41    19    23    1
    42    19    24    1
    43    39    40    1
@<TRIPOS>MOLECULE
*****
 40 43 0 0 0
SMALL
GASTEIGER

@<TRIPOS>ATOM
      1 C          64.6867   90.0897   13.7678 C.ar    1  UNL1        0.0053
      2 C          63.7439   90.4033   12.6441 C.ar    1  UNL1        0.0033
      3 C          63.0079   89.2952   11.9512 C.ar    1  UNL1        0.0382
      4 C          63.2147   87.8733   12.3820 C.ar    1  UNL1        0.1529
      5 C          64.1574   87.5596   13.5057 C.ar    1  UNL1        0.0881
      6 C          64.8934   88.6678   14.1986 C.ar    1  UNL1        0.0181
      7 N          64.3642   86.1378   13.9365 N.am    1  UNL1       -0.2529
      8 C          63.6282   85.0296   13.2436 C.2     1  UNL1        0.2697
      9 O          63.8349   83.6078   13.6744 O.2     1  UNL1       -0.2704
     10 C          62.6854   85.3432   12.1198 C.3     1  UNL1        0.2199
     11 C          61.6949   85.1384   11.0121 C.3     1  UNL1        0.0579
     12 O          62.4786   86.7651   11.6890 O.3     1  UNL1       -0.4686
     13 C          64.8950   91.7587   15.7480 C.ar    1  UNL1        0.0645
     14 N          65.6310   92.8668   16.4410 N.ar    1  UNL1       -0.2183
     15 C          66.8948   93.4143   15.8467 C.ar    1  UNL1        0.2145
     16 N          67.6308   94.5224   16.5397 N.pl3   1  UNL1       -0.3274
     17 N          67.4226   92.8535   14.5595 N.ar    1  UNL1       -0.1995
     18 C          66.6865   91.7453   13.8665 C.ar    1  UNL1        0.1293
     19 N          67.2143   91.1845   12.5793 N.pl3   1  UNL1       -0.3425
     20 C          65.4228   91.1979   14.4608 C.ar    1  UNL1        0.0449
     21 H          67.2844   94.8905   17.3845 H       1  UNL1        0.1452
     22 H          68.4603   94.8817   16.1497 H       1  UNL1        0.1452
     23 H          68.0438   91.5438   12.1892 H       1  UNL1        0.1437
     24 H          66.7312   90.4572   12.1244 H       1  UNL1        0.1437
     25 C          63.5405   89.7584   16.7041 C.3     1  UNL1        0.0067
     26 C          63.6311   91.2112   16.3423 C.3     1  UNL1        0.0460
     27 C          62.5482   83.8503   12.1659 C.ar    1  UNL1        0.0264
     28 C          63.0733   83.0136   11.0371 C.ar    1  UNL1        0.0293
     29 C          62.9361   81.5206   11.0833 C.ar    1  UNL1        0.1422
     30 F          63.4614   80.6840    9.9543 F       1  UNL1       -0.2041
     31 C          62.2738   80.8642   12.2581 C.ar    1  UNL1        0.0592
     32 C          61.7486   81.7009   13.3869 C.ar    1  UNL1        0.1422
     33 F          61.0862   81.0445   14.5618 F       1  UNL1       -0.2041
     34 C          61.8857   83.1939   13.3408 C.ar    1  UNL1        0.0293
     35 C          65.3070   85.8241   15.0602 C.3     1  UNL1        0.0985
     36 C          64.7701   85.5289   16.4294 C.3     1  UNL1        0.0245
     37 C          63.4330   86.0685   16.8431 C.3     1  UNL1        0.0335
     38 C          62.1935   85.2540   16.6187 C.3     1  UNL1        0.1372
     39 O          62.3029   83.7873   16.3246 O.3     1  UNL1       -0.3820
     40 H          62.7376   83.6611   15.4667 H       1  UNL1        0.2104
@<TRIPOS>BOND
     1    25    26    1
     2    26    13    1
     3    13    14   ar
     4    14    15   ar
     5    15    16    1
     6    15    17   ar
     7    17    18   ar
     8    18    19    1
     9    18    20   ar
    10    20     1    1
    11     1     2   ar
    12     2     3   ar
    13     3     4   ar
    14     4     5   ar
    15     5     6   ar
    16     5     7    1
    17     7    35    1
    18    35    36    1
    19    36    37    1
    20    37    38    1
    21    38    39    1
    22     7     8   am
    23     8     9    2
    24     8    10    1
    25    10    11    1
    26    10    27    1
    27    27    28   ar
    28    28    29   ar
    29    29    30    1
    30    29    31   ar
    31    31    32   ar
    32    32    33    1
    33    32    34   ar
    34    10    12    1
    35    20    13   ar
    36     6     1   ar
    37    34    27   ar
    38    12     4    1
    39    16    21    1
    40    16    22    1
    41    19    23    1
    42    19    24    1
    43    39    40    1
