@<TRIPOS>MOLECULE
*****
 42 45 0 0 0
SMALL
GASTEIGER

@<TRIPOS>ATOM
      1 C          63.5209   90.5998   15.9633 C.2     1  UNL1        0.2461
      2 O          63.8913   91.9835   16.4084 O.2     1  UNL1       -0.2729
      3 N          64.0211   90.0753   14.6500 N.am    1  UNL1       -0.2825
      4 H          63.7780   89.1671   14.3579 H       1  UNL1        0.1549
      5 C          64.8918   90.9345   13.7819 C.ar    1  UNL1        0.0503
      6 C          64.3309   91.5532   12.5358 C.ar    1  UNL1        0.0144
      7 C          65.2016   92.4124   11.6677 C.ar    1  UNL1       -0.0017
      8 C          66.6331   92.6530   12.0456 C.ar    1  UNL1       -0.0022
      9 C          67.1940   92.0343   13.2917 C.ar    1  UNL1        0.0700
     10 C          66.3234   91.1751   14.1598 C.ar    1  UNL1        0.0182
     11 C          68.6255   92.2749   13.6696 C.3     1  UNL1        0.4184
     12 F          70.0570   92.5155   14.0475 F       1  UNL1       -0.1659
     13 F          69.0646   91.2706   12.6456 F       1  UNL1       -0.1659
     14 F          68.1864   93.2792   14.6935 F       1  UNL1       -0.1659
     15 C          67.5038   93.5122   11.1774 C.3     1  UNL1        0.0992
     16 N          66.8859   94.5556   10.2946 N.3     1  UNL1       -0.2665
     17 C          65.9715   95.5895   10.8821 C.3     1  UNL1        0.0897
     18 C          65.3536   96.6329    9.9993 C.3     1  UNL1        0.0862
     19 N          65.6500   96.6426    8.5289 N.3     1  UNL1       -0.2951
     20 C          66.5644   95.6088    7.9414 C.3     1  UNL1        0.0862
     21 C          67.1823   94.5653    8.8242 C.3     1  UNL1        0.0897
     22 H          66.0596   97.5524    8.3171 H       1  UNL1        0.1233
     23 C          62.6502   89.7406   16.8314 C.3     1  UNL1        0.1739
     24 N          63.2083   88.4957   17.4550 N.pl3   1  UNL1       -0.3253
     25 H          63.6149   88.5336   18.3508 H       1  UNL1        0.1473
     26 C          63.0242   84.5881   15.2309 C.ar    1  UNL1        0.0016
     27 C          63.9433   85.6762   14.7606 C.ar    1  UNL1        0.0013
     28 C          64.0046   86.9787   15.5019 C.ar    1  UNL1        0.0143
     29 C          63.1469   87.1932   16.7136 C.ar    1  UNL1        0.0450
     30 C          62.2279   86.1051   17.1840 C.ar    1  UNL1        0.0143
     31 C          62.1665   84.8025   16.4426 C.ar    1  UNL1        0.0013
     32 C          62.8401   80.6804   13.0069 C.ar    1  UNL1        0.1342
     33 C          61.6422   81.1683   13.7664 C.ar    1  UNL1        0.0345
     34 C          61.7035   82.4708   14.5077 C.ar    1  UNL1        0.0044
     35 C          62.9628   83.2855   14.4896 C.ar    1  UNL1        0.0193
     36 C          64.1608   82.7977   13.7301 C.ar    1  UNL1        0.1003
     37 N          64.0994   81.4951   12.9887 N.ar    1  UNL1       -0.2290
     38 C          62.8012   78.0600   10.0267 C.3     1  UNL1        0.0950
     39 C          62.8626   79.3626   10.7680 C.2     1  UNL1        0.2277
     40 O          63.0078   80.6498   10.0117 O.2     1  UNL1       -0.2747
     41 N          62.7787   79.3779   12.2656 N.am    1  UNL1       -0.2693
     42 H          62.6834   78.5330   12.7619 H       1  UNL1        0.1563
@<TRIPOS>BOND
     1    38    39    1
     2    39    40    2
     3    39    41   am
     4    41    32    1
     5    32    33   ar
     6    33    34   ar
     7    34    35   ar
     8    35    26    1
     9    26    27   ar
    10    27    28   ar
    11    28    29   ar
    12    29    24    1
    13    24    23    1
    14    23     1    1
    15     1     2    2
    16     1     3   am
    17     3     5    1
    18     5     6   ar
    19     6     7   ar
    20     7     8   ar
    21     8    15    1
    22    15    16    1
    23    16    17    1
    24    17    18    1
    25    18    19    1
    26    19    20    1
    27    20    21    1
    28     8     9   ar
    29     9    11    1
    30    11    12    1
    31    11    13    1
    32    11    14    1
    33     9    10   ar
    34    29    30   ar
    35    30    31   ar
    36    35    36   ar
    37    36    37   ar
    38    37    32   ar
    39    31    26   ar
    40    10     5   ar
    41    21    16    1
    42    41    42    1
    43    24    25    1
    44     3     4    1
    45    19    22    1
@<TRIPOS>MOLECULE
*****
 42 45 0 0 0
SMALL
GASTEIGER

@<TRIPOS>ATOM
      1 C          59.5341   91.6041    4.5271 C.2     1  UNL1        0.2461
      2 O          60.9852   91.2363    4.6213 O.2     1  UNL1       -0.2729
      3 N          59.0301   92.3705    3.3403 N.am    1  UNL1       -0.2825
      4 H          58.0776   92.6119    3.2785 H       1  UNL1        0.1549
      5 C          59.9772   92.7692    2.2476 C.ar    1  UNL1        0.0503
      6 C          59.5310   92.7279    0.8162 C.ar    1  UNL1        0.0144
      7 C          60.4782   93.1266   -0.2765 C.ar    1  UNL1       -0.0017
      8 C          61.8716   93.5666    0.0623 C.ar    1  UNL1       -0.0022
      9 C          62.3179   93.6079    1.4938 C.ar    1  UNL1        0.0700
     10 C          61.3707   93.2093    2.5865 C.ar    1  UNL1        0.0182
     11 C          63.7112   94.0480    1.8327 C.3     1  UNL1        0.4184
     12 F          65.1046   94.4880    2.1715 F       1  UNL1       -0.1659
     13 F          64.1738   92.6220    1.7823 F       1  UNL1       -0.1659
     14 F          63.2487   95.4739    1.8830 F       1  UNL1       -0.1659
     15 C          62.8188   93.9653   -1.0304 C.3     1  UNL1        0.0992
     16 N          62.2933   94.5987   -2.2844 N.3     1  UNL1       -0.2665
     17 C          62.4105   93.8780   -3.5947 C.3     1  UNL1        0.0897
     18 C          61.8850   94.5114   -4.8487 C.3     1  UNL1        0.0862
     19 N          61.2423   95.8656   -4.7924 N.3     1  UNL1       -0.2951
     20 C          61.1251   96.5863   -3.4822 C.3     1  UNL1        0.0862
     21 C          61.6506   95.9529   -2.2281 C.3     1  UNL1        0.0897
     22 H          60.2950   95.7572   -5.1546 H       1  UNL1        0.1233
     23 C          58.5869   91.2054    5.6198 C.3     1  UNL1        0.1739
     24 N          58.3628   89.7541    5.9256 N.pl3   1  UNL1       -0.3253
     25 H          57.6951   89.2410    5.4157 H       1  UNL1        0.1473
     26 C          60.7427   87.7457    9.1741 C.ar    1  UNL1        0.0016
     27 C          59.9544   86.9193    8.2017 C.ar    1  UNL1        0.0013
     28 C          59.1611   87.5888    7.1189 C.ar    1  UNL1        0.0143
     29 C          59.1561   89.0847    7.0085 C.ar    1  UNL1        0.0450
     30 C          59.9444   89.9111    7.9809 C.ar    1  UNL1        0.0143
     31 C          60.7377   89.2416    9.0637 C.ar    1  UNL1        0.0013
     32 C          63.1225   85.7373   12.4226 C.ar    1  UNL1        0.1342
     33 C          62.4191   84.9102   11.3876 C.ar    1  UNL1        0.0345
     34 C          61.6258   85.5797   10.3048 C.ar    1  UNL1        0.0044
     35 C          61.5359   87.0762   10.2569 C.ar    1  UNL1        0.0193
     36 C          62.2393   87.9032   11.2919 C.ar    1  UNL1        0.1003
     37 N          63.0326   87.2338   12.3747 N.ar    1  UNL1       -0.2290
     38 C          64.0068   83.7922   15.7669 C.3     1  UNL1        0.0950
     39 C          63.2135   84.4617   14.6841 C.2     1  UNL1        0.2277
     40 O          61.7178   84.5250   14.7800 O.2     1  UNL1       -0.2747
     41 N          63.9158   85.0678   13.5054 N.am    1  UNL1       -0.2693
     42 H          64.8974   85.0262   13.4425 H       1  UNL1        0.1563
@<TRIPOS>BOND
     1    38    39    1
     2    39    40    2
     3    39    41   am
     4    41    32    1
     5    32    33   ar
     6    33    34   ar
     7    34    35   ar
     8    35    26    1
     9    26    27   ar
    10    27    28   ar
    11    28    29   ar
    12    29    24    1
    13    24    23    1
    14    23     1    1
    15     1     2    2
    16     1     3   am
    17     3     5    1
    18     5     6   ar
    19     6     7   ar
    20     7     8   ar
    21     8    15    1
    22    15    16    1
    23    16    17    1
    24    17    18    1
    25    18    19    1
    26    19    20    1
    27    20    21    1
    28     8     9   ar
    29     9    11    1
    30    11    12    1
    31    11    13    1
    32    11    14    1
    33     9    10   ar
    34    29    30   ar
    35    30    31   ar
    36    35    36   ar
    37    36    37   ar
    38    37    32   ar
    39    31    26   ar
    40    10     5   ar
    41    21    16    1
    42    41    42    1
    43    24    25    1
    44     3     4    1
    45    19    22    1
@<TRIPOS>MOLECULE
*****
 42 45 0 0 0
SMALL
GASTEIGER

@<TRIPOS>ATOM
      1 C          59.2438   91.5179    5.0022 C.2     1  UNL1        0.2461
      2 O          58.1743   92.0368    4.0874 O.2     1  UNL1       -0.2729
      3 N          60.6877   91.6449    4.6160 N.am    1  UNL1       -0.2825
      4 H          61.3897   91.3044    5.2164 H       1  UNL1        0.1549
      5 C          61.0620   92.2908    3.3149 C.ar    1  UNL1        0.0503
      6 C          62.4109   92.0345    2.7111 C.ar    1  UNL1        0.0144
      7 C          62.7853   92.6803    1.4100 C.ar    1  UNL1       -0.0017
      8 C          61.8107   93.5825    0.7128 C.ar    1  UNL1       -0.0022
      9 C          60.4617   93.8389    1.3167 C.ar    1  UNL1        0.0700
     10 C          60.0874   93.1931    2.6177 C.ar    1  UNL1        0.0182
     11 C          59.4871   94.7411    0.6195 C.3     1  UNL1        0.4184
     12 F          58.5125   95.6433   -0.0777 F       1  UNL1       -0.1659
     13 F          58.9653   93.5727   -0.1631 F       1  UNL1       -0.1659
     14 F          60.0089   95.9096    1.4021 F       1  UNL1       -0.1659
     15 C          62.1850   94.2284   -0.5882 C.3     1  UNL1        0.0992
     16 N          63.4480   95.0310   -0.6911 N.3     1  UNL1       -0.2665
     17 C          64.0794   95.2673   -2.0311 C.3     1  UNL1        0.0897
     18 C          65.3425   96.0698   -2.1340 C.3     1  UNL1        0.0862
     19 N          65.9741   96.6362   -0.8970 N.3     1  UNL1       -0.2951
     20 C          65.3427   96.3999    0.4430 C.3     1  UNL1        0.0862
     21 C          64.0796   95.5973    0.5459 C.3     1  UNL1        0.0897
     22 H          66.0207   97.6468   -1.0264 H       1  UNL1        0.1233
     23 C          58.8695   90.8721    6.3033 C.3     1  UNL1        0.1739
     24 N          58.5872   89.3998    6.3559 N.pl3   1  UNL1       -0.3253
     25 H          57.8859   89.0124    5.7838 H       1  UNL1        0.1473
     26 C          60.9457   86.7542    9.1287 C.ar    1  UNL1        0.0016
     27 C          60.9360   88.2397    9.3370 C.ar    1  UNL1        0.0013
     28 C          60.1499   89.1215    8.4127 C.ar    1  UNL1        0.0143
     29 C          59.3733   88.5180    7.2801 C.ar    1  UNL1        0.0450
     30 C          59.3830   87.0326    7.0719 C.ar    1  UNL1        0.0143
     31 C          60.1691   86.1507    7.9961 C.ar    1  UNL1        0.0013
     32 C          63.3041   84.1086   11.9015 C.ar    1  UNL1        0.1342
     33 C          63.4841   83.9891   10.4171 C.ar    1  UNL1        0.0345
     34 C          62.6979   84.8709    9.4929 C.ar    1  UNL1        0.0044
     35 C          61.7318   85.8724   10.0529 C.ar    1  UNL1        0.0193
     36 C          61.5519   85.9920   11.5373 C.ar    1  UNL1        0.1003
     37 N          62.3380   85.1101   12.4615 N.ar    1  UNL1       -0.2290
     38 C          64.3781   80.9687   14.0781 C.3     1  UNL1        0.0950
     39 C          63.5919   81.8506   13.1538 C.2     1  UNL1        0.2277
     40 O          62.3073   81.3562   12.5576 O.2     1  UNL1       -0.2747
     41 N          64.0903   83.2268   12.8257 N.am    1  UNL1       -0.2693
     42 H          64.9334   83.5512   13.2170 H       1  UNL1        0.1563
@<TRIPOS>BOND
     1    38    39    1
     2    39    40    2
     3    39    41   am
     4    41    32    1
     5    32    33   ar
     6    33    34   ar
     7    34    35   ar
     8    35    26    1
     9    26    27   ar
    10    27    28   ar
    11    28    29   ar
    12    29    24    1
    13    24    23    1
    14    23     1    1
    15     1     2    2
    16     1     3   am
    17     3     5    1
    18     5     6   ar
    19     6     7   ar
    20     7     8   ar
    21     8    15    1
    22    15    16    1
    23    16    17    1
    24    17    18    1
    25    18    19    1
    26    19    20    1
    27    20    21    1
    28     8     9   ar
    29     9    11    1
    30    11    12    1
    31    11    13    1
    32    11    14    1
    33     9    10   ar
    34    29    30   ar
    35    30    31   ar
    36    35    36   ar
    37    36    37   ar
    38    37    32   ar
    39    31    26   ar
    40    10     5   ar
    41    21    16    1
    42    41    42    1
    43    24    25    1
    44     3     4    1
    45    19    22    1
@<TRIPOS>MOLECULE
*****
 42 45 0 0 0
SMALL
GASTEIGER

@<TRIPOS>ATOM
      1 C          60.1497   88.7439    8.1328 C.2     1  UNL1        0.2461
      2 O          60.7420   87.3887    8.3829 O.2     1  UNL1       -0.2729
      3 N          60.5149   89.8973    9.0196 N.am    1  UNL1       -0.2825
      4 H          60.1261   90.7868    8.8554 H       1  UNL1        0.1549
      5 C          61.4724   89.6955   10.1564 C.ar    1  UNL1        0.0503
      6 C          61.4896   88.3931   10.9003 C.ar    1  UNL1        0.0144
      7 C          62.4471   88.1912   12.0371 C.ar    1  UNL1       -0.0017
      8 C          63.3874   89.2918   12.4301 C.ar    1  UNL1       -0.0022
      9 C          63.3702   90.5943   11.6863 C.ar    1  UNL1        0.0700
     10 C          62.4127   90.7962   10.5494 C.ar    1  UNL1        0.0182
     11 C          64.3105   91.6949   12.0793 C.3     1  UNL1        0.4184
     12 F          65.2508   92.7955   12.4723 F       1  UNL1       -0.1659
     13 F          63.6943   91.7333   13.4463 F       1  UNL1       -0.1659
     14 F          64.9268   91.6566   10.7123 F       1  UNL1       -0.1659
     15 C          64.3449   89.0900   13.5670 C.3     1  UNL1        0.0992
     16 N          63.9558   88.2281   14.7313 N.3     1  UNL1       -0.2665
     17 C          64.1915   86.7475   14.6803 C.3     1  UNL1        0.0897
     18 C          63.8024   85.8856   15.8447 C.3     1  UNL1        0.0862
     19 N          63.1775   86.5042   17.0599 N.3     1  UNL1       -0.2951
     20 C          62.9418   87.9846   17.1109 C.3     1  UNL1        0.0862
     21 C          63.3309   88.8466   15.9466 C.3     1  UNL1        0.0897
     22 H          63.7803   86.2746   17.8501 H       1  UNL1        0.1233
     23 C          59.1921   88.9457    6.9960 C.3     1  UNL1        0.1739
     24 N          58.8222   90.3338    6.5644 N.pl3   1  UNL1       -0.3253
     25 H          58.0988   90.8164    7.0259 H       1  UNL1        0.1473
     26 C          61.0191   92.2922    3.1602 C.ar    1  UNL1        0.0016
     27 C          61.7100   91.2640    4.0060 C.ar    1  UNL1        0.0013
     28 C          60.9777   90.6112    5.1407 C.ar    1  UNL1        0.0143
     29 C          59.5545   90.9866    5.4297 C.ar    1  UNL1        0.0450
     30 C          58.8636   92.0148    4.5839 C.ar    1  UNL1        0.0143
     31 C          59.5959   92.6676    3.4491 C.ar    1  UNL1        0.0013
     32 C          63.2160   94.2506   -0.2440 C.ar    1  UNL1        0.1342
     33 C          63.9725   93.4542    0.7775 C.ar    1  UNL1        0.0345
     34 C          63.2402   92.8014    1.9122 C.ar    1  UNL1        0.0044
     35 C          61.7514   92.9450    2.0255 C.ar    1  UNL1        0.0193
     36 C          60.9949   93.7413    1.0040 C.ar    1  UNL1        0.1003
     37 N          61.7272   94.3941   -0.1308 N.ar    1  UNL1       -0.2290
     38 C          64.6842   94.9168   -3.8703 C.3     1  UNL1        0.0950
     39 C          63.9520   94.2640   -2.7356 C.2     1  UNL1        0.2277
     40 O          63.2233   92.9717   -2.9578 O.2     1  UNL1       -0.2747
     41 N          63.9483   94.9033   -1.3787 N.am    1  UNL1       -0.2693
     42 H          64.4265   95.7515   -1.2329 H       1  UNL1        0.1563
@<TRIPOS>BOND
     1    38    39    1
     2    39    40    2
     3    39    41   am
     4    41    32    1
     5    32    33   ar
     6    33    34   ar
     7    34    35   ar
     8    35    26    1
     9    26    27   ar
    10    27    28   ar
    11    28    29   ar
    12    29    24    1
    13    24    23    1
    14    23     1    1
    15     1     2    2
    16     1     3   am
    17     3     5    1
    18     5     6   ar
    19     6     7   ar
    20     7     8   ar
    21     8    15    1
    22    15    16    1
    23    16    17    1
    24    17    18    1
    25    18    19    1
    26    19    20    1
    27    20    21    1
    28     8     9   ar
    29     9    11    1
    30    11    12    1
    31    11    13    1
    32    11    14    1
    33     9    10   ar
    34    29    30   ar
    35    30    31   ar
    36    35    36   ar
    37    36    37   ar
    38    37    32   ar
    39    31    26   ar
    40    10     5   ar
    41    21    16    1
    42    41    42    1
    43    24    25    1
    44     3     4    1
    45    19    22    1
@<TRIPOS>MOLECULE
*****
 42 45 0 0 0
SMALL
GASTEIGER

@<TRIPOS>ATOM
      1 C          59.3727   91.1286    4.8681 C.2     1  UNL1        0.2461
      2 O          58.3581   92.1491    4.4451 O.2     1  UNL1       -0.2729
      3 N          60.7643   91.1786    4.3105 N.am    1  UNL1       -0.2825
      4 H          61.4303   90.5088    4.5881 H       1  UNL1        0.1549
      5 C          61.1413   92.2493    3.3298 C.ar    1  UNL1        0.0503
      6 C          60.0900   93.1680    2.7816 C.ar    1  UNL1        0.0144
      7 C          60.4669   94.2387    1.8010 C.ar    1  UNL1       -0.0017
      8 C          61.8951   94.3905    1.3686 C.ar    1  UNL1       -0.0022
      9 C          62.9465   93.4718    1.9168 C.ar    1  UNL1        0.0700
     10 C          62.5696   92.4011    2.8974 C.ar    1  UNL1        0.0182
     11 C          64.3748   93.6236    1.4844 C.3     1  UNL1        0.4184
     12 F          65.8030   93.7755    1.0520 F       1  UNL1       -0.1659
     13 F          64.6011   94.6204    2.5821 F       1  UNL1       -0.1659
     14 F          64.1484   92.6268    0.3866 F       1  UNL1       -0.1659
     15 C          62.2721   95.4612    0.3879 C.3     1  UNL1        0.0992
     16 N          62.7220   95.0882   -0.9935 N.3     1  UNL1       -0.2665
     17 C          61.9589   94.0638   -1.7799 C.3     1  UNL1        0.0897
     18 C          62.4088   93.6909   -3.1613 C.3     1  UNL1        0.0862
     19 N          63.6218   94.3423   -3.7565 N.3     1  UNL1       -0.2951
     20 C          64.3850   95.3666   -2.9702 C.3     1  UNL1        0.0862
     21 C          63.9350   95.7396   -1.5887 C.3     1  UNL1        0.0897
     22 H          63.3190   94.7977   -4.6175 H       1  UNL1        0.1233
     23 C          58.9957   90.0579    5.8488 C.3     1  UNL1        0.1739
     24 N          59.3100   90.2306    7.3052 N.pl3   1  UNL1       -0.3253
     25 H          59.0688   91.0670    7.7651 H       1  UNL1        0.1473
     26 C          61.3554   86.9254    9.5728 C.ar    1  UNL1        0.0016
     27 C          60.4230   86.5957    8.4451 C.ar    1  UNL1        0.0013
     28 C          59.7412   87.6975    7.6892 C.ar    1  UNL1        0.0143
     29 C          59.9918   89.1288    8.0611 C.ar    1  UNL1        0.0450
     30 C          60.9242   89.4585    9.1889 C.ar    1  UNL1        0.0143
     31 C          61.6060   88.3567    9.9447 C.ar    1  UNL1        0.0013
     32 C          63.4009   83.6202   11.8404 C.ar    1  UNL1        0.1342
     33 C          63.5603   83.7190   10.3522 C.ar    1  UNL1        0.0345
     34 C          62.8785   84.8207    9.5964 C.ar    1  UNL1        0.0044
     35 C          62.0373   85.8236   10.3287 C.ar    1  UNL1        0.0193
     36 C          61.8778   85.7249   11.8169 C.ar    1  UNL1        0.1003
     37 N          62.5596   84.6231   12.5728 N.ar    1  UNL1       -0.2290
     38 C          63.9518   80.3239   13.9807 C.3     1  UNL1        0.0950
     39 C          63.2699   81.4256   13.2249 C.2     1  UNL1        0.2277
     40 O          61.7753   81.4345   13.0976 O.2     1  UNL1       -0.2747
     41 N          64.0827   82.5185   12.5963 N.am    1  UNL1       -0.2693
     42 H          65.0636   82.5126   12.6798 H       1  UNL1        0.1563
@<TRIPOS>BOND
     1    38    39    1
     2    39    40    2
     3    39    41   am
     4    41    32    1
     5    32    33   ar
     6    33    34   ar
     7    34    35   ar
     8    35    26    1
     9    26    27   ar
    10    27    28   ar
    11    28    29   ar
    12    29    24    1
    13    24    23    1
    14    23     1    1
    15     1     2    2
    16     1     3   am
    17     3     5    1
    18     5     6   ar
    19     6     7   ar
    20     7     8   ar
    21     8    15    1
    22    15    16    1
    23    16    17    1
    24    17    18    1
    25    18    19    1
    26    19    20    1
    27    20    21    1
    28     8     9   ar
    29     9    11    1
    30    11    12    1
    31    11    13    1
    32    11    14    1
    33     9    10   ar
    34    29    30   ar
    35    30    31   ar
    36    35    36   ar
    37    36    37   ar
    38    37    32   ar
    39    31    26   ar
    40    10     5   ar
    41    21    16    1
    42    41    42    1
    43    24    25    1
    44     3     4    1
    45    19    22    1
@<TRIPOS>MOLECULE
*****
 42 45 0 0 0
SMALL
GASTEIGER

@<TRIPOS>ATOM
      1 C          60.3859   87.1982    8.4742 C.2     1  UNL1        0.2461
      2 O          59.8581   85.8029    8.3178 O.2     1  UNL1       -0.2729
      3 N          61.6286   87.4444    9.2774 N.am    1  UNL1       -0.2825
      4 H          61.9751   88.3602    9.3801 H       1  UNL1        0.1549
      5 C          62.3435   86.2951    9.9242 C.ar    1  UNL1        0.0503
      6 C          62.9851   85.2377    9.0755 C.ar    1  UNL1        0.0144
      7 C          63.6999   84.0885    9.7222 C.ar    1  UNL1       -0.0017
      8 C          63.7733   83.9967   11.2176 C.ar    1  UNL1       -0.0022
      9 C          63.1317   85.0542   12.0663 C.ar    1  UNL1        0.0700
     10 C          62.4169   86.2034   11.4196 C.ar    1  UNL1        0.0182
     11 C          63.2051   84.9624   13.5617 C.3     1  UNL1        0.4184
     12 F          63.2784   84.8706   15.0570 F       1  UNL1       -0.1659
     13 F          61.9892   84.0840   13.5674 F       1  UNL1       -0.1659
     14 F          64.4210   85.8407   13.5559 F       1  UNL1       -0.1659
     15 C          64.4882   82.8475   11.8643 C.3     1  UNL1        0.0992
     16 N          63.7200   81.6336   12.2959 N.3     1  UNL1       -0.2665
     17 C          63.4775   81.3787   13.7541 C.3     1  UNL1        0.0897
     18 C          62.7093   80.1649   14.1857 C.3     1  UNL1        0.0862
     19 N          62.1836   79.2057   13.1592 N.3     1  UNL1       -0.2951
     20 C          62.4261   79.4605   11.7010 C.3     1  UNL1        0.0862
     21 C          63.1943   80.6745   11.2694 C.3     1  UNL1        0.0897
     22 H          61.1725   79.1632   13.2865 H       1  UNL1        0.1233
     23 C          59.6710   88.3474    7.8275 C.3     1  UNL1        0.1739
     24 N          59.6039   89.6753    8.5218 N.pl3   1  UNL1       -0.3253
     25 H          58.8810   90.3078    8.3057 H       1  UNL1        0.1473
     26 C          62.7065   90.7681   11.5926 C.ar    1  UNL1        0.0016
     27 C          61.3620   90.2672   12.0302 C.ar    1  UNL1        0.0013
     28 C          60.3278   89.9029   11.0066 C.ar    1  UNL1        0.0143
     29 C          60.6381   90.0396    9.5454 C.ar    1  UNL1        0.0450
     30 C          61.9825   90.5405    9.1079 C.ar    1  UNL1        0.0143
     31 C          63.0167   90.9048   10.1315 C.ar    1  UNL1        0.0013
     32 C          65.8091   91.8609   14.6634 C.ar    1  UNL1        0.1342
     33 C          64.8718   90.7179   14.9181 C.ar    1  UNL1        0.0345
     34 C          63.8376   90.3536   13.8945 C.ar    1  UNL1        0.0044
     35 C          63.7407   91.1324   12.6162 C.ar    1  UNL1        0.0193
     36 C          64.6779   92.2755   12.3616 C.ar    1  UNL1        0.1003
     37 N          65.7121   92.6398   13.3852 N.ar    1  UNL1       -0.2290
     38 C          69.3125   92.7474   16.3036 C.3     1  UNL1        0.0950
     39 C          68.2783   92.3832   15.2800 C.2     1  UNL1        0.2277
     40 O          68.6792   92.1769   13.8493 O.2     1  UNL1       -0.2747
     41 N          66.8433   92.2252   15.6870 N.am    1  UNL1       -0.2693
     42 H          66.5802   92.3606   16.6260 H       1  UNL1        0.1563
@<TRIPOS>BOND
     1    38    39    1
     2    39    40    2
     3    39    41   am
     4    41    32    1
     5    32    33   ar
     6    33    34   ar
     7    34    35   ar
     8    35    26    1
     9    26    27   ar
    10    27    28   ar
    11    28    29   ar
    12    29    24    1
    13    24    23    1
    14    23     1    1
    15     1     2    2
    16     1     3   am
    17     3     5    1
    18     5     6   ar
    19     6     7   ar
    20     7     8   ar
    21     8    15    1
    22    15    16    1
    23    16    17    1
    24    17    18    1
    25    18    19    1
    26    19    20    1
    27    20    21    1
    28     8     9   ar
    29     9    11    1
    30    11    12    1
    31    11    13    1
    32    11    14    1
    33     9    10   ar
    34    29    30   ar
    35    30    31   ar
    36    35    36   ar
    37    36    37   ar
    38    37    32   ar
    39    31    26   ar
    40    10     5   ar
    41    21    16    1
    42    41    42    1
    43    24    25    1
    44     3     4    1
    45    19    22    1
@<TRIPOS>MOLECULE
*****
 42 45 0 0 0
SMALL
GASTEIGER

@<TRIPOS>ATOM
      1 C          64.9779   84.6009   13.7044 C.2     1  UNL1        0.2461
      2 O          66.1922   85.1650   14.3805 O.2     1  UNL1       -0.2729
      3 N          63.8027   85.4863   13.4125 N.am    1  UNL1       -0.2825
      4 H          63.0056   85.1160   12.9687 H       1  UNL1        0.1549
      5 C          63.8420   86.9357   13.7966 C.ar    1  UNL1        0.0503
      6 C          64.2748   87.3345   15.1762 C.ar    1  UNL1        0.0144
      7 C          64.3141   88.7840   15.5604 C.ar    1  UNL1       -0.0017
      8 C          63.9205   89.8346   14.5648 C.ar    1  UNL1       -0.0022
      9 C          63.4876   89.4358   13.1850 C.ar    1  UNL1        0.0700
     10 C          63.4483   87.9864   12.8009 C.ar    1  UNL1        0.0182
     11 C          63.0940   90.4865   12.1895 C.3     1  UNL1        0.4184
     12 F          62.7004   91.5371   11.1939 F       1  UNL1       -0.1659
     13 F          64.5400   90.7257   11.8703 F       1  UNL1       -0.1659
     14 F          61.6481   90.2473   12.5087 F       1  UNL1       -0.1659
     15 C          63.9598   91.2841   14.9489 C.3     1  UNL1        0.0992
     16 N          65.2473   92.0485   14.8614 N.3     1  UNL1       -0.2665
     17 C          65.7507   92.5199   13.5292 C.3     1  UNL1        0.0897
     18 C          67.0383   93.2843   13.4417 C.3     1  UNL1        0.0862
     19 N          67.8225   93.5775   14.6863 N.3     1  UNL1       -0.2951
     20 C          67.3192   93.1062   16.0184 C.3     1  UNL1        0.0862
     21 C          66.0316   92.3417   16.1060 C.3     1  UNL1        0.0897
     22 H          67.9104   94.5919   14.7468 H       1  UNL1        0.1233
     23 C          64.9386   83.1514   13.3203 C.3     1  UNL1        0.1739
     24 N          64.3642   82.7416   11.9967 N.pl3   1  UNL1       -0.3253
     25 H          64.5473   81.8435   11.6374 H       1  UNL1        0.1473
     26 C          61.8036   85.6173    9.6677 C.ar    1  UNL1        0.0016
     27 C          61.4536   85.2815   11.0871 C.ar    1  UNL1        0.0013
     28 C          62.3071   84.3230   11.8634 C.ar    1  UNL1        0.0143
     29 C          63.5106   83.7002   11.2204 C.ar    1  UNL1        0.0450
     30 C          63.8606   84.0359    9.8010 C.ar    1  UNL1        0.0143
     31 C          63.0071   84.9945    9.0247 C.ar    1  UNL1        0.0013
     32 C          59.2430   88.4929    7.3388 C.ar    1  UNL1        0.1342
     33 C          60.0673   88.9862    8.4908 C.ar    1  UNL1        0.0345
     34 C          60.9208   88.0277    9.2671 C.ar    1  UNL1        0.0044
     35 C          60.9500   86.5758    8.8914 C.ar    1  UNL1        0.0193
     36 C          60.1258   86.0825    7.7394 C.ar    1  UNL1        0.1003
     37 N          59.2723   87.0411    6.9631 N.ar    1  UNL1       -0.2290
     38 C          58.1758   91.4185    4.8787 C.3     1  UNL1        0.0950
     39 C          59.0293   90.4600    5.6550 C.2     1  UNL1        0.2277
     40 O          60.5228   90.5099    5.5239 O.2     1  UNL1       -0.2747
     41 N          58.3895   89.4515    6.5625 N.am    1  UNL1       -0.2693
     42 H          57.4093   89.4187    6.6486 H       1  UNL1        0.1563
@<TRIPOS>BOND
     1    38    39    1
     2    39    40    2
     3    39    41   am
     4    41    32    1
     5    32    33   ar
     6    33    34   ar
     7    34    35   ar
     8    35    26    1
     9    26    27   ar
    10    27    28   ar
    11    28    29   ar
    12    29    24    1
    13    24    23    1
    14    23     1    1
    15     1     2    2
    16     1     3   am
    17     3     5    1
    18     5     6   ar
    19     6     7   ar
    20     7     8   ar
    21     8    15    1
    22    15    16    1
    23    16    17    1
    24    17    18    1
    25    18    19    1
    26    19    20    1
    27    20    21    1
    28     8     9   ar
    29     9    11    1
    30    11    12    1
    31    11    13    1
    32    11    14    1
    33     9    10   ar
    34    29    30   ar
    35    30    31   ar
    36    35    36   ar
    37    36    37   ar
    38    37    32   ar
    39    31    26   ar
    40    10     5   ar
    41    21    16    1
    42    41    42    1
    43    24    25    1
    44     3     4    1
    45    19    22    1
@<TRIPOS>MOLECULE
*****
 42 45 0 0 0
SMALL
GASTEIGER

@<TRIPOS>ATOM
      1 C          62.3798   87.9786   11.3977 C.2     1  UNL1        0.2461
      2 O          63.1053   88.3277   10.1322 O.2     1  UNL1       -0.2729
      3 N          62.5880   88.8029   12.6335 N.am    1  UNL1       -0.2825
      4 H          62.1118   88.5738   13.4642 H       1  UNL1        0.1549
      5 C          63.5218   89.9765   12.6037 C.ar    1  UNL1        0.0503
      6 C          63.5074   90.9168   11.4352 C.ar    1  UNL1        0.0144
      7 C          64.4412   92.0903   11.4053 C.ar    1  UNL1       -0.0017
      8 C          65.3894   92.3235   12.5440 C.ar    1  UNL1       -0.0022
      9 C          65.4037   91.3831   13.7126 C.ar    1  UNL1        0.0700
     10 C          64.4700   90.2096   13.7424 C.ar    1  UNL1        0.0182
     11 C          66.3519   91.6163   14.8513 C.3     1  UNL1        0.4184
     12 F          67.3000   91.8495   15.9900 F       1  UNL1       -0.1659
     13 F          65.2361   92.2107   15.6586 F       1  UNL1       -0.1659
     14 F          67.4676   91.0219   14.0440 F       1  UNL1       -0.1659
     15 C          66.3231   93.4970   12.5142 C.3     1  UNL1        0.0992
     16 N          66.7821   94.0571   11.2005 N.3     1  UNL1       -0.2665
     17 C          67.4917   93.1753   10.2161 C.3     1  UNL1        0.0897
     18 C          67.9506   93.7354    8.9024 C.3     1  UNL1        0.0862
     19 N          67.7000   95.1772    8.5732 N.3     1  UNL1       -0.2951
     20 C          66.9905   96.0589    9.5576 C.3     1  UNL1        0.0862
     21 C          66.5315   95.4989   10.8713 C.3     1  UNL1        0.0897
     22 H          67.1495   95.1918    7.7147 H       1  UNL1        0.1233
     23 C          61.4460   86.8050   11.4276 C.3     1  UNL1        0.1739
     24 N          60.1346   86.8714   10.7024 N.pl3   1  UNL1       -0.3253
     25 H          59.3732   86.3292   11.0115 H       1  UNL1        0.1473
     26 C          59.6807   89.5488    7.1142 C.ar    1  UNL1        0.0016
     27 C          59.3982   88.0806    6.9949 C.ar    1  UNL1        0.0013
     28 C          59.5495   87.1881    8.1910 C.ar    1  UNL1        0.0143
     29 C          59.9833   87.7639    9.5063 C.ar    1  UNL1        0.0450
     30 C          60.2659   89.2321    9.6256 C.ar    1  UNL1        0.0143
     31 C          60.1146   90.1246    8.4295 C.ar    1  UNL1        0.0013
     32 C          59.2268   92.2263    3.5260 C.ar    1  UNL1        0.1342
     33 C          60.5882   91.7530    3.9412 C.ar    1  UNL1        0.0345
     34 C          60.7395   90.8605    5.1373 C.ar    1  UNL1        0.0044
     35 C          59.5294   90.4413    5.9181 C.ar    1  UNL1        0.0193
     36 C          58.1680   90.9146    5.5029 C.ar    1  UNL1        0.1003
     37 N          58.0167   91.8071    4.3068 N.ar    1  UNL1       -0.2290
     38 C          60.0072   94.0665    0.0975 C.3     1  UNL1        0.0950
     39 C          60.1585   93.1740    1.2936 C.2     1  UNL1        0.2277
     40 O          61.3929   92.3368    1.4533 O.2     1  UNL1       -0.2747
     41 N          59.0755   93.1188    2.3299 N.am    1  UNL1       -0.2693
     42 H          58.2654   93.6683    2.2251 H       1  UNL1        0.1563
@<TRIPOS>BOND
     1    38    39    1
     2    39    40    2
     3    39    41   am
     4    41    32    1
     5    32    33   ar
     6    33    34   ar
     7    34    35   ar
     8    35    26    1
     9    26    27   ar
    10    27    28   ar
    11    28    29   ar
    12    29    24    1
    13    24    23    1
    14    23     1    1
    15     1     2    2
    16     1     3   am
    17     3     5    1
    18     5     6   ar
    19     6     7   ar
    20     7     8   ar
    21     8    15    1
    22    15    16    1
    23    16    17    1
    24    17    18    1
    25    18    19    1
    26    19    20    1
    27    20    21    1
    28     8     9   ar
    29     9    11    1
    30    11    12    1
    31    11    13    1
    32    11    14    1
    33     9    10   ar
    34    29    30   ar
    35    30    31   ar
    36    35    36   ar
    37    36    37   ar
    38    37    32   ar
    39    31    26   ar
    40    10     5   ar
    41    21    16    1
    42    41    42    1
    43    24    25    1
    44     3     4    1
    45    19    22    1
@<TRIPOS>MOLECULE
*****
 42 45 0 0 0
SMALL
GASTEIGER

@<TRIPOS>ATOM
      1 C          60.0952   88.0062    8.7398 C.2     1  UNL1        0.2461
      2 O          60.1918   89.1743    9.6758 O.2     1  UNL1       -0.2729
      3 N          60.8477   86.7429    9.0366 N.am    1  UNL1       -0.2825
      4 H          60.7843   85.9762    8.4223 H       1  UNL1        0.1549
      5 C          61.6968   86.6479   10.2695 C.ar    1  UNL1        0.0503
      6 C          62.2502   87.8929   10.8969 C.ar    1  UNL1        0.0144
      7 C          63.0993   87.7978   12.1298 C.ar    1  UNL1       -0.0017
      8 C          63.3950   86.4578   12.7353 C.ar    1  UNL1       -0.0022
      9 C          62.8416   85.2126   12.1079 C.ar    1  UNL1        0.0700
     10 C          61.9925   85.3077   10.8750 C.ar    1  UNL1        0.0182
     11 C          63.1373   83.8726   12.7134 C.3     1  UNL1        0.4184
     12 F          63.4330   82.5325   13.3190 F       1  UNL1       -0.1659
     13 F          62.0498   84.0891   13.7236 F       1  UNL1       -0.1659
     14 F          64.2248   83.6561   11.7033 F       1  UNL1       -0.1659
     15 C          64.2440   86.3627   13.9682 C.3     1  UNL1        0.0992
     16 N          63.7217   86.8700   15.2795 N.3     1  UNL1       -0.2665
     17 C          63.6665   88.3454   15.5447 C.3     1  UNL1        0.0897
     18 C          63.1441   88.8528   16.8560 C.3     1  UNL1        0.0862
     19 N          62.6769   87.8847   17.9023 N.3     1  UNL1       -0.2951
     20 C          62.7320   86.4094   17.6372 C.3     1  UNL1        0.0862
     21 C          63.2544   85.9020   16.3258 C.3     1  UNL1        0.0897
     22 H          61.7024   88.1122   18.0997 H       1  UNL1        0.1233
     23 C          59.2461   88.1012    7.5069 C.3     1  UNL1        0.1739
     24 N          58.5478   89.3864    7.1744 N.pl3   1  UNL1       -0.3253
     25 H          57.7652   89.6715    7.6992 H       1  UNL1        0.1473
     26 C          60.0301   91.9391    3.7778 C.ar    1  UNL1        0.0016
     27 C          60.9783   91.0301    4.5021 C.ar    1  UNL1        0.0013
     28 C          60.4842   90.1793    5.6343 C.ar    1  UNL1        0.0143
     29 C          59.0419   90.2373    6.0422 C.ar    1  UNL1        0.0450
     30 C          58.0937   91.1462    5.3178 C.ar    1  UNL1        0.0143
     31 C          58.5878   91.9971    4.1856 C.ar    1  UNL1        0.0013
     32 C          61.5124   94.4917    0.3812 C.ar    1  UNL1        0.1342
     33 C          62.4900   93.8670    1.3320 C.ar    1  UNL1        0.0345
     34 C          61.9959   93.0161    2.4641 C.ar    1  UNL1        0.0044
     35 C          60.5242   92.7899    2.6456 C.ar    1  UNL1        0.0193
     36 C          59.5466   93.4147    1.6948 C.ar    1  UNL1        0.1003
     37 N          60.0407   94.2655    0.5626 N.ar    1  UNL1       -0.2290
     38 C          62.9405   95.5530   -3.1662 C.3     1  UNL1        0.0950
     39 C          62.4464   94.7021   -2.0340 C.2     1  UNL1        0.2277
     40 O          62.3923   93.2106   -2.1849 O.2     1  UNL1       -0.2747
     41 N          62.0065   95.3426   -0.7510 N.am    1  UNL1       -0.2693
     42 H          62.0420   96.3215   -0.6520 H       1  UNL1        0.1563
@<TRIPOS>BOND
     1    38    39    1
     2    39    40    2
     3    39    41   am
     4    41    32    1
     5    32    33   ar
     6    33    34   ar
     7    34    35   ar
     8    35    26    1
     9    26    27   ar
    10    27    28   ar
    11    28    29   ar
    12    29    24    1
    13    24    23    1
    14    23     1    1
    15     1     2    2
    16     1     3   am
    17     3     5    1
    18     5     6   ar
    19     6     7   ar
    20     7     8   ar
    21     8    15    1
    22    15    16    1
    23    16    17    1
    24    17    18    1
    25    18    19    1
    26    19    20    1
    27    20    21    1
    28     8     9   ar
    29     9    11    1
    30    11    12    1
    31    11    13    1
    32    11    14    1
    33     9    10   ar
    34    29    30   ar
    35    30    31   ar
    36    35    36   ar
    37    36    37   ar
    38    37    32   ar
    39    31    26   ar
    40    10     5   ar
    41    21    16    1
    42    41    42    1
    43    24    25    1
    44     3     4    1
    45    19    22    1
