@<TRIPOS>MOLECULE
*****
 22 24 0 0 0
SMALL
GASTEIGER

@<TRIPOS>ATOM
      1 C          63.6603   86.0939   14.2029 C.3     1  UNL1        0.2337
      2 N          63.4471   84.6091   14.2091 N.ar    1  UNL1       -0.2923
      3 C          63.7346   83.5582   15.2401 C.ar    1  UNL1        0.1796
      4 N          63.3043   82.2333   14.6839 N.ar    1  UNL1       -0.2226
      5 C          62.7509   82.4653   13.3091 C.ar    1  UNL1        0.1148
      6 C          62.8391   83.9337   13.0157 C.ar    1  UNL1        0.0770
      7 C          62.4444   84.7430   11.8161 C.3     1  UNL1        0.1410
      8 N          62.6577   86.2278   11.8098 N.3     1  UNL1       -0.1473
      9 S          63.2656   86.9032   13.0031 S.O2    1  UNL1        0.0628
     10 O          63.0568   88.0903   12.1102 O.2     1  UNL1       -0.1555
     11 O          63.8010   87.9909   13.8865 O.2     1  UNL1       -0.1555
     12 C          64.2683   86.7694   15.3963 C.3     1  UNL1        0.0490
     13 C          63.1533   88.6292   16.8272 C.3     1  UNL1        0.0001
     14 C          63.4011   87.1759   16.5507 C.3     1  UNL1        0.0037
     15 C          62.7817   86.1291   17.4285 C.3     1  UNL1        0.0001
     16 C          62.2629   87.0371   10.6101 C.3     1  UNL1        0.1222
     17 C          61.9384   86.3509    9.3163 C.ar    1  UNL1       -0.0045
     18 C          60.5479   86.4211    8.7582 C.ar    1  UNL1       -0.0029
     19 C          60.2233   85.7349    7.4644 C.ar    1  UNL1       -0.0003
     20 C          61.2895   84.9784    6.7287 C.ar    1  UNL1       -0.0000
     21 C          62.6800   84.9081    7.2868 C.ar    1  UNL1       -0.0003
     22 C          63.0045   85.5944    8.5806 C.ar    1  UNL1       -0.0029
@<TRIPOS>BOND
     1    13    14    1
     2    14    15    1
     3    14    12    1
     4    12     1    1
     5     1     2    1
     6     2     3   ar
     7     3     4   ar
     8     4     5   ar
     9     5     6   ar
    10     6     7    1
    11     7     8    1
    12     8    16    1
    13    16    17    1
    14    17    18   ar
    15    18    19   ar
    16    19    20   ar
    17    20    21   ar
    18    21    22   ar
    19     8     9    1
    20     9    10    2
    21     9    11    2
    22     9     1    1
    23     6     2   ar
    24    22    17   ar
@<TRIPOS>MOLECULE
*****
 22 24 0 0 0
SMALL
GASTEIGER

@<TRIPOS>ATOM
      1 C          61.8132   86.7855   10.6196 C.3     1  UNL1        0.2337
      2 N          60.9645   87.3712    9.5303 N.ar    1  UNL1       -0.2923
      3 C          60.2471   86.7457    8.3709 C.ar    1  UNL1        0.1796
      4 N          59.5537   87.8376    7.6113 N.ar    1  UNL1       -0.2226
      5 C          59.8426   89.1378    8.3011 C.ar    1  UNL1        0.1148
      6 C          60.7146   88.8496    9.4871 C.ar    1  UNL1        0.0770
      7 C          61.3132   89.7423   10.5334 C.3     1  UNL1        0.1410
      8 N          62.1618   89.1567   11.6228 N.3     1  UNL1       -0.1473
      9 S          62.4118   87.6784   11.6659 S.O2    1  UNL1        0.0628
     10 O          63.1913   88.1097   12.8728 O.2     1  UNL1       -0.1555
     11 O          62.9325   86.3497   12.1282 O.2     1  UNL1       -0.1555
     12 C          62.0632   85.3071   10.6629 C.3     1  UNL1        0.0490
     13 C          63.1997   85.2290    8.3279 C.3     1  UNL1        0.0001
     14 C          63.0477   84.6850    9.7176 C.3     1  UNL1        0.0037
     15 C          63.8803   83.5191   10.1618 C.3     1  UNL1        0.0001
     16 C          62.7605   90.0495   12.6690 C.3     1  UNL1        0.1222
     17 C          63.8746   90.9864   12.3072 C.ar    1  UNL1       -0.0045
     18 C          63.9734   91.5314   10.9132 C.ar    1  UNL1       -0.0029
     19 C          65.0875   92.4684   10.5514 C.ar    1  UNL1       -0.0003
     20 C          66.1029   92.8603   11.5837 C.ar    1  UNL1       -0.0000
     21 C          66.0040   92.3154   12.9776 C.ar    1  UNL1       -0.0003
     22 C          64.8899   91.3784   13.3394 C.ar    1  UNL1       -0.0029
@<TRIPOS>BOND
     1    13    14    1
     2    14    15    1
     3    14    12    1
     4    12     1    1
     5     1     2    1
     6     2     3   ar
     7     3     4   ar
     8     4     5   ar
     9     5     6   ar
    10     6     7    1
    11     7     8    1
    12     8    16    1
    13    16    17    1
    14    17    18   ar
    15    18    19   ar
    16    19    20   ar
    17    20    21   ar
    18    21    22   ar
    19     8     9    1
    20     9    10    2
    21     9    11    2
    22     9     1    1
    23     6     2   ar
    24    22    17   ar
@<TRIPOS>MOLECULE
*****
 22 24 0 0 0
SMALL
GASTEIGER

@<TRIPOS>ATOM
      1 C          62.3898   88.6495   11.9171 C.3     1  UNL1        0.2337
      2 N          61.5467   88.2448   10.7444 N.ar    1  UNL1       -0.2923
      3 C          60.7439   89.0447    9.7617 C.ar    1  UNL1        0.1796
      4 N          60.1042   88.0890    8.7987 N.ar    1  UNL1       -0.2226
      5 C          60.5116   86.6983    9.1862 C.ar    1  UNL1        0.1148
      6 C          61.4031   86.7946   10.3887 C.ar    1  UNL1        0.0770
      7 C          62.1027   85.7492   11.2058 C.3     1  UNL1        0.1410
      8 N          62.9458   86.1539   12.3785 N.3     1  UNL1       -0.1473
      9 S          63.0894   87.6039   12.7341 S.O2    1  UNL1        0.0628
     10 O          63.9417   86.9878   13.8038 O.2     1  UNL1       -0.1555
     11 O          63.5290   88.8402   13.4612 O.2     1  UNL1       -0.1555
     12 C          62.5335   90.0996   12.2728 C.3     1  UNL1        0.0490
     13 C          64.6300   91.6273   12.1292 C.3     1  UNL1        0.0001
     14 C          63.4460   90.9812   11.4728 C.3     1  UNL1        0.0037
     15 C          63.1747   91.2168   10.0165 C.3     1  UNL1        0.0001
     16 C          63.6455   85.1083   13.1956 C.3     1  UNL1        0.1222
     17 C          63.1625   83.6885   13.1690 C.ar    1  UNL1       -0.0045
     18 C          62.3544   83.1495   14.3120 C.ar    1  UNL1       -0.0029
     19 C          61.8715   81.7296   14.2854 C.ar    1  UNL1       -0.0003
     20 C          62.1967   80.8487   13.1157 C.ar    1  UNL1       -0.0000
     21 C          63.0047   81.3876   11.9727 C.ar    1  UNL1       -0.0003
     22 C          63.4876   82.8075   11.9993 C.ar    1  UNL1       -0.0029
@<TRIPOS>BOND
     1    13    14    1
     2    14    15    1
     3    14    12    1
     4    12     1    1
     5     1     2    1
     6     2     3   ar
     7     3     4   ar
     8     4     5   ar
     9     5     6   ar
    10     6     7    1
    11     7     8    1
    12     8    16    1
    13    16    17    1
    14    17    18   ar
    15    18    19   ar
    16    19    20   ar
    17    20    21   ar
    18    21    22   ar
    19     8     9    1
    20     9    10    2
    21     9    11    2
    22     9     1    1
    23     6     2   ar
    24    22    17   ar
@<TRIPOS>MOLECULE
*****
 22 24 0 0 0
SMALL
GASTEIGER

@<TRIPOS>ATOM
      1 C          62.3720   88.6605   11.9141 C.3     1  UNL1        0.2337
      2 N          61.5205   88.2520   10.7488 N.ar    1  UNL1       -0.2923
      3 C          60.7127   89.0490    9.7679 C.ar    1  UNL1        0.1796
      4 N          60.0651   88.0900    8.8134 N.ar    1  UNL1       -0.2226
      5 C          60.4728   86.7004    9.2043 C.ar    1  UNL1        0.1148
      6 C          61.3723   86.8006   10.4005 C.ar    1  UNL1        0.0770
      7 C          62.0755   85.7576   11.2176 C.3     1  UNL1        0.1410
      8 N          62.9270   86.1661   12.3830 N.3     1  UNL1       -0.1473
      9 S          63.0752   87.6175   12.7312 S.O2    1  UNL1        0.0628
     10 O          63.9335   87.0047   13.7980 O.2     1  UNL1       -0.1555
     11 O          63.5216   88.8562   13.4500 O.2     1  UNL1       -0.1555
     12 C          62.5203   90.1120   12.2625 C.3     1  UNL1        0.0490
     13 C          63.1844   91.2217   10.0092 C.3     1  UNL1        0.0001
     14 C          63.4463   90.9834   11.4668 C.3     1  UNL1        0.0037
     15 C          64.6342   91.6165   12.1286 C.3     1  UNL1        0.0001
     16 C          63.6302   85.1230   13.2001 C.3     1  UNL1        0.1222
     17 C          63.1525   83.7014   13.1732 C.ar    1  UNL1       -0.0045
     18 C          63.4781   82.8228   12.0018 C.ar    1  UNL1       -0.0029
     19 C          63.0004   81.4011   11.9749 C.ar    1  UNL1       -0.0003
     20 C          62.1971   80.8581   13.1195 C.ar    1  UNL1       -0.0000
     21 C          61.8715   81.7366   14.2908 C.ar    1  UNL1       -0.0003
     22 C          62.3493   83.1583   14.3177 C.ar    1  UNL1       -0.0029
@<TRIPOS>BOND
     1    13    14    1
     2    14    15    1
     3    14    12    1
     4    12     1    1
     5     1     2    1
     6     2     3   ar
     7     3     4   ar
     8     4     5   ar
     9     5     6   ar
    10     6     7    1
    11     7     8    1
    12     8    16    1
    13    16    17    1
    14    17    18   ar
    15    18    19   ar
    16    19    20   ar
    17    20    21   ar
    18    21    22   ar
    19     8     9    1
    20     9    10    2
    21     9    11    2
    22     9     1    1
    23     6     2   ar
    24    22    17   ar
@<TRIPOS>MOLECULE
*****
 22 24 0 0 0
SMALL
GASTEIGER

@<TRIPOS>ATOM
      1 C          65.2087   91.2153   13.6299 C.3     1  UNL1        0.2337
      2 N          65.7099   92.0613   12.4971 N.ar    1  UNL1       -0.2923
      3 C          66.9574   92.8771   12.3293 C.ar    1  UNL1        0.1796
      4 N          66.9161   93.5132   10.9716 N.ar    1  UNL1       -0.2226
      5 C          65.6430   93.0906   10.3002 C.ar    1  UNL1        0.1148
      6 C          64.8976   92.1932   11.2431 C.ar    1  UNL1        0.0770
      7 C          63.5840   91.4792   11.1217 C.3     1  UNL1        0.1410
      8 N          63.0828   90.6332   12.2545 N.3     1  UNL1       -0.1473
      9 S          63.8951   90.5013   13.5085 S.O2    1  UNL1        0.0628
     10 O          62.7222   89.6371   13.8658 O.2     1  UNL1       -0.1555
     11 O          64.3002   90.0692   14.8867 O.2     1  UNL1       -0.1555
     12 C          66.0210   91.0833   14.8840 C.3     1  UNL1        0.0490
     13 C          64.9972   92.5966   16.7310 C.3     1  UNL1        0.0001
     14 C          66.1404   92.2445   15.8259 C.3     1  UNL1        0.0037
     15 C          67.4030   93.0536   15.8628 C.3     1  UNL1        0.0001
     16 C          61.7692   89.9192   12.1331 C.3     1  UNL1        0.1222
     17 C          61.4866   89.0680   10.9307 C.ar    1  UNL1       -0.0045
     18 C          60.4569   89.5017    9.9299 C.ar    1  UNL1       -0.0029
     19 C          60.1743   88.6505    8.7276 C.ar    1  UNL1       -0.0003
     20 C          60.9216   87.3655    8.5260 C.ar    1  UNL1       -0.0000
     21 C          61.9512   86.9318    9.5267 C.ar    1  UNL1       -0.0003
     22 C          62.2338   87.7831   10.7291 C.ar    1  UNL1       -0.0029
@<TRIPOS>BOND
     1    13    14    1
     2    14    15    1
     3    14    12    1
     4    12     1    1
     5     1     2    1
     6     2     3   ar
     7     3     4   ar
     8     4     5   ar
     9     5     6   ar
    10     6     7    1
    11     7     8    1
    12     8    16    1
    13    16    17    1
    14    17    18   ar
    15    18    19   ar
    16    19    20   ar
    17    20    21   ar
    18    21    22   ar
    19     8     9    1
    20     9    10    2
    21     9    11    2
    22     9     1    1
    23     6     2   ar
    24    22    17   ar
@<TRIPOS>MOLECULE
*****
 22 24 0 0 0
SMALL
GASTEIGER

@<TRIPOS>ATOM
      1 C          61.2529   88.2120   10.7485 C.3     1  UNL1        0.2337
      2 N          60.5966   87.6534    9.5208 N.ar    1  UNL1       -0.2923
      3 C          59.6210   88.2448    8.5470 C.ar    1  UNL1        0.1796
      4 N          59.3150   87.2062    7.5089 N.ar    1  UNL1       -0.2226
      5 C          60.1015   85.9729    7.8411 C.ar    1  UNL1        0.1148
      6 C          60.8936   86.2492    9.0846 C.ar    1  UNL1        0.0770
      7 C          61.8469   85.4037    9.8760 C.3     1  UNL1        0.1410
      8 N          62.5032   85.9624   11.1036 N.3     1  UNL1       -0.1473
      9 S          62.2063   87.3664   11.5399 S.O2    1  UNL1        0.0628
     10 O          63.1731   86.9594   12.6122 O.2     1  UNL1       -0.1555
     11 O          62.2451   88.6292   12.3485 O.2     1  UNL1       -0.1555
     12 C          60.9560   89.6161   11.1848 C.3     1  UNL1        0.0490
     13 C          59.0090   91.3096   11.4857 C.3     1  UNL1        0.0001
     14 C          59.6068   89.9583   11.7437 C.3     1  UNL1        0.0037
     15 C          58.8554   88.9493   12.5606 C.3     1  UNL1        0.0001
     16 C          63.4566   85.1168   11.8950 C.3     1  UNL1        0.1222
     17 C          63.0458   83.7469   12.3476 C.ar    1  UNL1       -0.0045
     18 C          63.2007   82.5743   11.4250 C.ar    1  UNL1       -0.0029
     19 C          62.7900   81.2045   11.8775 C.ar    1  UNL1       -0.0003
     20 C          62.2244   81.0072   13.2528 C.ar    1  UNL1       -0.0000
     21 C          62.0695   82.1796   14.1753 C.ar    1  UNL1       -0.0003
     22 C          62.4802   83.5496   13.7227 C.ar    1  UNL1       -0.0029
@<TRIPOS>BOND
     1    13    14    1
     2    14    15    1
     3    14    12    1
     4    12     1    1
     5     1     2    1
     6     2     3   ar
     7     3     4   ar
     8     4     5   ar
     9     5     6   ar
    10     6     7    1
    11     7     8    1
    12     8    16    1
    13    16    17    1
    14    17    18   ar
    15    18    19   ar
    16    19    20   ar
    17    20    21   ar
    18    21    22   ar
    19     8     9    1
    20     9    10    2
    21     9    11    2
    22     9     1    1
    23     6     2   ar
    24    22    17   ar
@<TRIPOS>MOLECULE
*****
 22 24 0 0 0
SMALL
GASTEIGER

@<TRIPOS>ATOM
      1 C          62.3882   86.5372   11.3272 C.3     1  UNL1        0.2337
      2 N          61.8655   87.7460   10.6093 N.ar    1  UNL1       -0.2923
      3 C          61.0640   87.8972    9.3505 C.ar    1  UNL1        0.1796
      4 N          60.8336   89.3614    9.1207 N.ar    1  UNL1       -0.2226
      5 C          61.4928   90.1153   10.2375 C.ar    1  UNL1        0.1148
      6 C          62.1305   89.1169   11.1575 C.ar    1  UNL1        0.0770
      7 C          62.9183   89.2789   12.4237 C.3     1  UNL1        0.1410
      8 N          63.4410   88.0701   13.1416 N.3     1  UNL1       -0.1473
      9 S          63.1761   86.6993   12.5934 S.O2    1  UNL1        0.0628
     10 O          63.9673   86.3421   13.8168 O.2     1  UNL1       -0.1555
     11 O          63.1858   85.2043   12.4701 O.2     1  UNL1       -0.1555
     12 C          62.1233   85.1663   10.7791 C.3     1  UNL1        0.0490
     13 C          63.0148   85.2609    8.3407 C.3     1  UNL1        0.0001
     14 C          62.9960   84.6114    9.6927 C.3     1  UNL1        0.0037
     15 C          63.8498   83.4070    9.9581 C.3     1  UNL1        0.0001
     16 C          64.2289   88.2322   14.4078 C.3     1  UNL1        0.1222
     17 C          64.4537   89.5999   14.9813 C.ar    1  UNL1       -0.0045
     18 C          65.5602   90.4629   14.4513 C.ar    1  UNL1       -0.0029
     19 C          65.7850   91.8306   15.0247 C.ar    1  UNL1       -0.0003
     20 C          64.9032   92.3353   16.1283 C.ar    1  UNL1       -0.0000
     21 C          63.7968   91.4724   16.6583 C.ar    1  UNL1       -0.0003
     22 C          63.5720   90.1046   16.0848 C.ar    1  UNL1       -0.0029
@<TRIPOS>BOND
     1    13    14    1
     2    14    15    1
     3    14    12    1
     4    12     1    1
     5     1     2    1
     6     2     3   ar
     7     3     4   ar
     8     4     5   ar
     9     5     6   ar
    10     6     7    1
    11     7     8    1
    12     8    16    1
    13    16    17    1
    14    17    18   ar
    15    18    19   ar
    16    19    20   ar
    17    20    21   ar
    18    21    22   ar
    19     8     9    1
    20     9    10    2
    21     9    11    2
    22     9     1    1
    23     6     2   ar
    24    22    17   ar
@<TRIPOS>MOLECULE
*****
 22 24 0 0 0
SMALL
GASTEIGER

@<TRIPOS>ATOM
      1 C          63.9217   87.9879   13.6326 C.3     1  UNL1        0.2337
      2 N          63.2587   88.5063   12.3909 N.ar    1  UNL1       -0.2923
      3 C          63.2098   89.8732   11.7753 C.ar    1  UNL1        0.1796
      4 N          62.3882   89.7885   10.5232 N.ar    1  UNL1       -0.2226
      5 C          61.9293   88.3692   10.3650 C.ar    1  UNL1        0.1148
      6 C          62.4673   87.5767   11.5193 C.ar    1  UNL1        0.0770
      7 C          62.3389   86.1288   11.8893 C.3     1  UNL1        0.1410
      8 N          63.0019   85.6104   13.1310 N.3     1  UNL1       -0.1473
      9 S          63.7932   86.5398   14.0026 S.O2    1  UNL1        0.0628
     10 O          63.9598   85.2603   14.7676 O.2     1  UNL1       -0.1555
     11 O          64.6425   87.0251   15.1399 O.2     1  UNL1       -0.1555
     12 C          64.7131   88.9174   14.5042 C.3     1  UNL1        0.0490
     13 C          63.0494   89.5502   16.3967 C.3     1  UNL1        0.0001
     14 C          64.0099   89.9612   15.3203 C.3     1  UNL1        0.0037
     15 C          64.2671   91.4158   15.0599 C.3     1  UNL1        0.0001
     16 C          62.8734   84.1624   13.5010 C.3     1  UNL1        0.1222
     17 C          63.0688   83.1018   12.4584 C.ar    1  UNL1       -0.0045
     18 C          62.4450   81.7494   12.6381 C.ar    1  UNL1       -0.0029
     19 C          62.6403   80.6888   11.5955 C.ar    1  UNL1       -0.0003
     20 C          63.4595   80.9806   10.3732 C.ar    1  UNL1       -0.0000
     21 C          64.0832   82.3328   10.1935 C.ar    1  UNL1       -0.0003
     22 C          63.8878   83.3934   11.2362 C.ar    1  UNL1       -0.0029
@<TRIPOS>BOND
     1    13    14    1
     2    14    15    1
     3    14    12    1
     4    12     1    1
     5     1     2    1
     6     2     3   ar
     7     3     4   ar
     8     4     5   ar
     9     5     6   ar
    10     6     7    1
    11     7     8    1
    12     8    16    1
    13    16    17    1
    14    17    18   ar
    15    18    19   ar
    16    19    20   ar
    17    20    21   ar
    18    21    22   ar
    19     8     9    1
    20     9    10    2
    21     9    11    2
    22     9     1    1
    23     6     2   ar
    24    22    17   ar
@<TRIPOS>MOLECULE
*****
 22 24 0 0 0
SMALL
GASTEIGER

@<TRIPOS>ATOM
      1 C          63.5093   86.1035   13.0237 C.3     1  UNL1        0.2337
      2 N          62.7387   86.2302   11.7430 N.ar    1  UNL1       -0.2923
      3 C          62.2370   85.2066   10.7681 C.ar    1  UNL1        0.1796
      4 N          61.5255   85.9289    9.6627 N.ar    1  UNL1       -0.2226
      5 C          61.5875   87.3990    9.9544 C.ar    1  UNL1        0.1148
      6 C          62.3374   87.5852   11.2401 C.ar    1  UNL1        0.0770
      7 C          62.7065   88.8135   12.0179 C.3     1  UNL1        0.1410
      8 N          63.4770   88.6868   13.2986 N.3     1  UNL1       -0.1473
      9 S          63.8784   87.3319   13.8015 S.O2    1  UNL1        0.0628
     10 O          64.4567   88.1936   14.8847 O.2     1  UNL1       -0.1555
     11 O          64.4806   86.2761   14.6806 O.2     1  UNL1       -0.1555
     12 C          63.9107   84.7486   13.5267 C.3     1  UNL1        0.0490
     13 C          62.0402   84.0306   15.1806 C.3     1  UNL1        0.0001
     14 C          62.8610   83.7657   13.9534 C.3     1  UNL1        0.0037
     15 C          62.6322   82.5180   13.1529 C.3     1  UNL1        0.0001
     16 C          63.8461   89.9152   14.0764 C.3     1  UNL1        0.1222
     17 C          64.7681   90.9345   13.4755 C.ar    1  UNL1       -0.0045
     18 C          66.0522   91.2847   14.1673 C.ar    1  UNL1       -0.0029
     19 C          66.9742   92.3039   13.5663 C.ar    1  UNL1       -0.0003
     20 C          66.6120   92.9730   12.2735 C.ar    1  UNL1       -0.0000
     21 C          65.3280   92.6228   11.5818 C.ar    1  UNL1       -0.0003
     22 C          64.4060   91.6035   12.1827 C.ar    1  UNL1       -0.0029
@<TRIPOS>BOND
     1    13    14    1
     2    14    15    1
     3    14    12    1
     4    12     1    1
     5     1     2    1
     6     2     3   ar
     7     3     4   ar
     8     4     5   ar
     9     5     6   ar
    10     6     7    1
    11     7     8    1
    12     8    16    1
    13    16    17    1
    14    17    18   ar
    15    18    19   ar
    16    19    20   ar
    17    20    21   ar
    18    21    22   ar
    19     8     9    1
    20     9    10    2
    21     9    11    2
    22     9     1    1
    23     6     2   ar
    24    22    17   ar
