@<TRIPOS>MOLECULE
*****
 28 31 0 0 0
SMALL
GASTEIGER

@<TRIPOS>ATOM
      1 O          60.4030   88.9177   12.7649 O.2     1  UNL1       -0.2699
      2 C          61.1489   89.2935   11.5189 C.2     1  UNL1        0.2490
      3 N          62.3484   90.1900   11.6046 N.am    1  UNL1       -0.2760
      4 C          63.0943   90.5659   10.3586 C.3     1  UNL1        0.0954
      5 C          64.2939   91.4625   10.4443 C.3     1  UNL1        0.0416
      6 C          64.7475   91.9831   11.7758 C.3     1  UNL1        0.0807
      7 C          64.0016   91.6073   13.0218 C.3     1  UNL1        0.0416
      8 C          62.8021   90.7108   12.9362 C.3     1  UNL1        0.0954
      9 C          60.6952   88.7728   10.1873 C.ar    1  UNL1        0.0536
     10 C          60.8357   87.3147    9.8648 C.ar    1  UNL1        0.0045
     11 C          60.3820   86.7940    8.5333 C.ar    1  UNL1        0.0001
     12 C          59.7879   87.7315    7.5242 C.ar    1  UNL1        0.0000
     13 C          59.6475   89.1896    7.8467 C.ar    1  UNL1        0.0001
     14 C          60.1011   89.7103    9.1783 C.ar    1  UNL1        0.0045
     15 N          65.9470   92.8797   11.8615 N.pl3   1  UNL1       -0.2872
     16 C          66.2207   93.8725   10.7709 C.ar    1  UNL1        0.0516
     17 C          67.1737   93.5281    9.6649 C.ar    1  UNL1        0.0157
     18 C          67.4474   94.5209    8.5743 C.ar    1  UNL1        0.0127
     19 C          66.7681   95.8581    8.5897 C.ar    1  UNL1        0.0578
     20 CL         67.0418   96.8509    7.4991 Cl      1  UNL1       -0.0822
     21 C          65.8150   96.2026    9.6956 C.ar    1  UNL1        0.0127
     22 C          65.5413   95.2098   10.7862 C.ar    1  UNL1        0.0157
     23 C          66.8729   92.7834   13.0377 C.ar    1  UNL1        0.0710
     24 C          66.5588   93.5265   14.3023 C.ar    1  UNL1        0.0180
     25 C          67.4846   93.4302   15.4784 C.ar    1  UNL1        0.0220
     26 C          68.7246   92.5908   15.3901 C.ar    1  UNL1        0.0990
     27 N          69.0388   91.8477   14.1256 N.ar    1  UNL1       -0.2410
     28 C          68.1129   91.9440   12.9494 C.ar    1  UNL1        0.1136
@<TRIPOS>BOND
     1     1     2    2
     2     2     9    1
     3     9    10   ar
     4    10    11   ar
     5    11    12   ar
     6    12    13   ar
     7    13    14   ar
     8     2     3   am
     9     3     4    1
    10     4     5    1
    11     5     6    1
    12     6    15    1
    13    15    16    1
    14    16    17   ar
    15    17    18   ar
    16    18    19   ar
    17    19    20    1
    18    19    21   ar
    19    21    22   ar
    20    15    23    1
    21    23    24   ar
    22    24    25   ar
    23    25    26   ar
    24    26    27   ar
    25    27    28   ar
    26     6     7    1
    27     7     8    1
    28    14     9   ar
    29     8     3    1
    30    22    16   ar
    31    28    23   ar
@<TRIPOS>MOLECULE
*****
 28 31 0 0 0
SMALL
GASTEIGER

@<TRIPOS>ATOM
      1 O          60.2689   88.9776   12.6917 O.2     1  UNL1       -0.2699
      2 C          61.0284   89.3221   11.4450 C.2     1  UNL1        0.2490
      3 N          62.2475   90.1922   11.5258 N.am    1  UNL1       -0.2760
      4 C          63.0071   90.5367   10.2790 C.3     1  UNL1        0.0954
      5 C          64.2263   91.4069   10.3599 C.3     1  UNL1        0.0416
      6 C          64.6859   91.9325   11.6874 C.3     1  UNL1        0.0807
      7 C          63.9263   91.5880   12.9342 C.3     1  UNL1        0.0416
      8 C          62.7072   90.7179   12.8534 C.3     1  UNL1        0.0954
      9 C          60.5688   88.7965   10.1173 C.ar    1  UNL1        0.0536
     10 C          60.0644   89.7438    9.0695 C.ar    1  UNL1        0.0045
     11 C          59.6048   89.2181    7.7420 C.ar    1  UNL1        0.0001
     12 C          59.6495   87.7451    7.4623 C.ar    1  UNL1        0.0000
     13 C          60.1539   86.7978    8.5102 C.ar    1  UNL1        0.0001
     14 C          60.6135   87.3235    9.8377 C.ar    1  UNL1        0.0045
     15 N          65.9050   92.8026   11.7682 N.pl3   1  UNL1       -0.2872
     16 C          66.7873   92.7468   12.9801 C.ar    1  UNL1        0.0516
     17 C          67.9599   91.8120   13.0117 C.ar    1  UNL1        0.0157
     18 C          68.8421   91.7562   14.2235 C.ar    1  UNL1        0.0127
     19 C          68.5518   92.6353   15.4037 C.ar    1  UNL1        0.0578
     20 CL         69.4340   92.5796   16.6155 Cl      1  UNL1       -0.0822
     21 C          67.3792   93.5702   15.3721 C.ar    1  UNL1        0.0127
     22 C          66.4969   93.6260   14.1603 C.ar    1  UNL1        0.0157
     23 C          66.2420   93.7285   10.6372 C.ar    1  UNL1        0.0710
     24 C          67.2786   93.3332    9.6277 C.ar    1  UNL1        0.0180
     25 C          67.6155   94.2591    8.4967 C.ar    1  UNL1        0.0220
     26 C          66.9158   95.5803    8.3752 C.ar    1  UNL1        0.0990
     27 N          65.8791   95.9756    9.3847 N.ar    1  UNL1       -0.2410
     28 C          65.5422   95.0497   10.5157 C.ar    1  UNL1        0.1136
@<TRIPOS>BOND
     1     1     2    2
     2     2     9    1
     3     9    10   ar
     4    10    11   ar
     5    11    12   ar
     6    12    13   ar
     7    13    14   ar
     8     2     3   am
     9     3     4    1
    10     4     5    1
    11     5     6    1
    12     6    15    1
    13    15    16    1
    14    16    17   ar
    15    17    18   ar
    16    18    19   ar
    17    19    20    1
    18    19    21   ar
    19    21    22   ar
    20    15    23    1
    21    23    24   ar
    22    24    25   ar
    23    25    26   ar
    24    26    27   ar
    25    27    28   ar
    26     6     7    1
    27     7     8    1
    28    14     9   ar
    29     8     3    1
    30    22    16   ar
    31    28    23   ar
@<TRIPOS>MOLECULE
*****
 28 31 0 0 0
SMALL
GASTEIGER

@<TRIPOS>ATOM
      1 O          64.8721   83.2849   15.6951 O.2     1  UNL1       -0.2699
      2 C          64.1171   83.5570   14.4278 C.2     1  UNL1        0.2490
      3 N          63.8988   84.9698   13.9735 N.am    1  UNL1       -0.2760
      4 C          63.1438   85.2418   12.7062 C.3     1  UNL1        0.0954
      5 C          62.9255   86.6547   12.2519 C.3     1  UNL1        0.0416
      6 C          63.4623   87.7953   13.0647 C.3     1  UNL1        0.0807
      7 C          64.2173   87.5232   14.3320 C.3     1  UNL1        0.0416
      8 C          64.4356   86.1105   14.7863 C.3     1  UNL1        0.0954
      9 C          63.5803   82.4163   13.6150 C.ar    1  UNL1        0.0536
     10 C          64.0309   82.2287   12.1966 C.ar    1  UNL1        0.0045
     11 C          63.4941   81.0880   11.3839 C.ar    1  UNL1        0.0001
     12 C          62.5067   80.1349   11.9894 C.ar    1  UNL1        0.0000
     13 C          62.0562   80.3225   13.4078 C.ar    1  UNL1        0.0001
     14 C          62.5929   81.4632   14.2205 C.ar    1  UNL1        0.0045
     15 N          63.2440   89.2080   12.6103 N.pl3   1  UNL1       -0.2872
     16 C          64.1572   90.2986   13.0865 C.ar    1  UNL1        0.0516
     17 C          64.7093   90.2592   14.4806 C.ar    1  UNL1        0.0157
     18 C          65.6225   91.3497   14.9567 C.ar    1  UNL1        0.0127
     19 C          65.9836   92.4798   14.0388 C.ar    1  UNL1        0.0578
     20 CL         66.8968   93.5703   14.5150 Cl      1  UNL1       -0.0822
     21 C          65.4314   92.5193   12.6446 C.ar    1  UNL1        0.0127
     22 C          64.5182   91.4287   12.1685 C.ar    1  UNL1        0.0157
     23 C          62.1125   89.5302   11.6798 C.ar    1  UNL1        0.0710
     24 C          62.2783   89.3357   10.2017 C.ar    1  UNL1        0.0180
     25 C          61.1468   89.6579    9.2712 C.ar    1  UNL1        0.0220
     26 C          59.8495   90.1747    9.8188 C.ar    1  UNL1        0.0990
     27 N          59.6836   90.3692   11.2968 N.ar    1  UNL1       -0.2410
     28 C          60.8151   90.0470   12.2273 C.ar    1  UNL1        0.1136
@<TRIPOS>BOND
     1     1     2    2
     2     2     9    1
     3     9    10   ar
     4    10    11   ar
     5    11    12   ar
     6    12    13   ar
     7    13    14   ar
     8     2     3   am
     9     3     4    1
    10     4     5    1
    11     5     6    1
    12     6    15    1
    13    15    16    1
    14    16    17   ar
    15    17    18   ar
    16    18    19   ar
    17    19    20    1
    18    19    21   ar
    19    21    22   ar
    20    15    23    1
    21    23    24   ar
    22    24    25   ar
    23    25    26   ar
    24    26    27   ar
    25    27    28   ar
    26     6     7    1
    27     7     8    1
    28    14     9   ar
    29     8     3    1
    30    22    16   ar
    31    28    23   ar
@<TRIPOS>MOLECULE
*****
 28 31 0 0 0
SMALL
GASTEIGER

@<TRIPOS>ATOM
      1 O          66.6559   94.2585   13.7310 O.2     1  UNL1       -0.2699
      2 C          66.1345   93.8346   12.3899 C.2     1  UNL1        0.2490
      3 N          65.3488   92.5637   12.2581 N.am    1  UNL1       -0.2760
      4 C          64.8275   92.1399   10.9170 C.3     1  UNL1        0.0954
      5 C          64.0417   90.8689   10.7853 C.3     1  UNL1        0.0416
      6 C          63.7773   90.0218   11.9946 C.3     1  UNL1        0.0807
      7 C          64.2986   90.4457   13.3357 C.3     1  UNL1        0.0416
      8 C          65.0844   91.7166   13.4675 C.3     1  UNL1        0.0954
      9 C          66.3990   94.6817   11.1805 C.ar    1  UNL1        0.0536
     10 C          65.7164   96.0090   11.0306 C.ar    1  UNL1        0.0045
     11 C          65.9809   96.8560    9.8213 C.ar    1  UNL1        0.0001
     12 C          66.9279   96.3758    8.7618 C.ar    1  UNL1        0.0000
     13 C          67.6105   95.0486    8.9116 C.ar    1  UNL1        0.0001
     14 C          67.3460   94.2015   10.1210 C.ar    1  UNL1        0.0045
     15 N          62.9916   88.7509   11.8628 N.pl3   1  UNL1       -0.2872
     16 C          63.3186   87.5734   12.7326 C.ar    1  UNL1        0.0516
     17 C          62.9501   86.1885   12.2896 C.ar    1  UNL1        0.0157
     18 C          63.2771   85.0110   13.1593 C.ar    1  UNL1        0.0127
     19 C          63.9727   85.2183   14.4720 C.ar    1  UNL1        0.0578
     20 CL         64.2997   84.0407   15.3417 Cl      1  UNL1       -0.0822
     21 C          64.3413   86.6032   14.9150 C.ar    1  UNL1        0.0127
     22 C          64.0143   87.7808   14.0453 C.ar    1  UNL1        0.0157
     23 C          61.8788   88.6576   10.8613 C.ar    1  UNL1        0.0710
     24 C          61.9821   87.6986    9.7126 C.ar    1  UNL1        0.0180
     25 C          60.8693   87.6052    8.7111 C.ar    1  UNL1        0.0220
     26 C          59.6532   88.4709    8.8584 C.ar    1  UNL1        0.0990
     27 N          59.5498   89.4298   10.0072 N.ar    1  UNL1       -0.2410
     28 C          60.6626   89.5232   11.0086 C.ar    1  UNL1        0.1136
@<TRIPOS>BOND
     1     1     2    2
     2     2     9    1
     3     9    10   ar
     4    10    11   ar
     5    11    12   ar
     6    12    13   ar
     7    13    14   ar
     8     2     3   am
     9     3     4    1
    10     4     5    1
    11     5     6    1
    12     6    15    1
    13    15    16    1
    14    16    17   ar
    15    17    18   ar
    16    18    19   ar
    17    19    20    1
    18    19    21   ar
    19    21    22   ar
    20    15    23    1
    21    23    24   ar
    22    24    25   ar
    23    25    26   ar
    24    26    27   ar
    25    27    28   ar
    26     6     7    1
    27     7     8    1
    28    14     9   ar
    29     8     3    1
    30    22    16   ar
    31    28    23   ar
@<TRIPOS>MOLECULE
*****
 28 31 0 0 0
SMALL
GASTEIGER

@<TRIPOS>ATOM
      1 O          66.6760   94.6633   13.3495 O.2     1  UNL1       -0.2699
      2 C          66.1057   94.1451   12.0626 C.2     1  UNL1        0.2490
      3 N          65.3661   92.8403   12.0417 N.am    1  UNL1       -0.2760
      4 C          64.7957   92.3220   10.7548 C.3     1  UNL1        0.0954
      5 C          64.0561   91.0171   10.7339 C.3     1  UNL1        0.0416
      6 C          63.8868   90.2306   11.9999 C.3     1  UNL1        0.0807
      7 C          64.4572   90.7489   13.2868 C.3     1  UNL1        0.0416
      8 C          65.1968   92.0537   13.3077 C.3     1  UNL1        0.0954
      9 C          66.2750   94.9316   10.7966 C.ar    1  UNL1        0.0536
     10 C          67.3733   94.5811    9.8370 C.ar    1  UNL1        0.0045
     11 C          67.5425   95.3676    8.5711 C.ar    1  UNL1        0.0001
     12 C          66.6135   96.5048    8.2648 C.ar    1  UNL1        0.0000
     13 C          65.5152   96.8553    9.2243 C.ar    1  UNL1        0.0001
     14 C          65.3460   96.0688   10.4903 C.ar    1  UNL1        0.0045
     15 N          63.1472   88.9259   11.9790 N.pl3   1  UNL1       -0.2872
     16 C          62.0860   88.6818   10.9474 C.ar    1  UNL1        0.0516
     17 C          62.3092   87.6645    9.8679 C.ar    1  UNL1        0.0157
     18 C          61.2480   87.4204    8.8363 C.ar    1  UNL1        0.0127
     19 C          59.9635   88.1935    8.8842 C.ar    1  UNL1        0.0578
     20 CL         58.9023   87.9494    7.8526 Cl      1  UNL1       -0.0822
     21 C          59.7402   89.2109    9.9637 C.ar    1  UNL1        0.0127
     22 C          60.8015   89.4550   10.9953 C.ar    1  UNL1        0.0157
     23 C          63.4688   87.8651   12.9897 C.ar    1  UNL1        0.0710
     24 C          64.0724   88.2449   14.3093 C.ar    1  UNL1        0.0180
     25 C          64.3939   87.1841   15.3199 C.ar    1  UNL1        0.0220
     26 C          64.1120   85.7436   15.0109 C.ar    1  UNL1        0.0990
     27 N          63.5085   85.3639   13.6913 N.ar    1  UNL1       -0.2410
     28 C          63.1869   86.4246   12.6806 C.ar    1  UNL1        0.1136
@<TRIPOS>BOND
     1     1     2    2
     2     2     9    1
     3     9    10   ar
     4    10    11   ar
     5    11    12   ar
     6    12    13   ar
     7    13    14   ar
     8     2     3   am
     9     3     4    1
    10     4     5    1
    11     5     6    1
    12     6    15    1
    13    15    16    1
    14    16    17   ar
    15    17    18   ar
    16    18    19   ar
    17    19    20    1
    18    19    21   ar
    19    21    22   ar
    20    15    23    1
    21    23    24   ar
    22    24    25   ar
    23    25    26   ar
    24    26    27   ar
    25    27    28   ar
    26     6     7    1
    27     7     8    1
    28    14     9   ar
    29     8     3    1
    30    22    16   ar
    31    28    23   ar
@<TRIPOS>MOLECULE
*****
 28 31 0 0 0
SMALL
GASTEIGER

@<TRIPOS>ATOM
      1 O          61.8211   85.3506   11.8938 O.2     1  UNL1       -0.2699
      2 C          61.7723   86.6180   11.0930 C.2     1  UNL1        0.2490
      3 N          62.5615   87.8148   11.5343 N.am    1  UNL1       -0.2760
      4 C          62.5127   89.0822   10.7335 C.3     1  UNL1        0.0954
      5 C          63.3019   90.2791   11.1748 C.3     1  UNL1        0.0416
      6 C          64.1400   90.2085   12.4168 C.3     1  UNL1        0.0807
      7 C          64.1888   88.9410   13.2176 C.3     1  UNL1        0.0416
      8 C          63.3996   87.7442   12.7764 C.3     1  UNL1        0.0954
      9 C          60.9342   86.6885    9.8509 C.ar    1  UNL1        0.0536
     10 C          61.2685   85.8255    8.6706 C.ar    1  UNL1        0.0045
     11 C          60.4305   85.8961    7.4286 C.ar    1  UNL1        0.0001
     12 C          59.2581   86.8297    7.3669 C.ar    1  UNL1        0.0000
     13 C          58.9238   87.6928    8.5473 C.ar    1  UNL1        0.0001
     14 C          59.7619   87.6222    9.7893 C.ar    1  UNL1        0.0045
     15 N          64.9292   91.4053   12.8581 N.pl3   1  UNL1       -0.2872
     16 C          65.6677   92.2311   11.8468 C.ar    1  UNL1        0.0516
     17 C          67.0259   91.8024   11.3762 C.ar    1  UNL1        0.0157
     18 C          67.7644   92.6283   10.3649 C.ar    1  UNL1        0.0127
     19 C          67.1448   93.8827    9.8244 C.ar    1  UNL1        0.0578
     20 CL         67.8833   94.7086    8.8131 Cl      1  UNL1       -0.0822
     21 C          65.7865   94.3115   10.2950 C.ar    1  UNL1        0.0127
     22 C          65.0480   93.4857   11.3063 C.ar    1  UNL1        0.0157
     23 C          64.9799   91.7763   14.3106 C.ar    1  UNL1        0.0710
     24 C          66.2218   92.3911   14.8848 C.ar    1  UNL1        0.0180
     25 C          66.2724   92.7621   16.3372 C.ar    1  UNL1        0.0220
     26 C          65.0812   92.5184   17.2156 C.ar    1  UNL1        0.0990
     27 N          63.8393   91.9036   16.6415 N.ar    1  UNL1       -0.2410
     28 C          63.7886   91.5326   15.1890 C.ar    1  UNL1        0.1136
@<TRIPOS>BOND
     1     1     2    2
     2     2     9    1
     3     9    10   ar
     4    10    11   ar
     5    11    12   ar
     6    12    13   ar
     7    13    14   ar
     8     2     3   am
     9     3     4    1
    10     4     5    1
    11     5     6    1
    12     6    15    1
    13    15    16    1
    14    16    17   ar
    15    17    18   ar
    16    18    19   ar
    17    19    20    1
    18    19    21   ar
    19    21    22   ar
    20    15    23    1
    21    23    24   ar
    22    24    25   ar
    23    25    26   ar
    24    26    27   ar
    25    27    28   ar
    26     6     7    1
    27     7     8    1
    28    14     9   ar
    29     8     3    1
    30    22    16   ar
    31    28    23   ar
@<TRIPOS>MOLECULE
*****
 28 31 0 0 0
SMALL
GASTEIGER

@<TRIPOS>ATOM
      1 O          64.6304   83.8677   15.7615 O.2     1  UNL1       -0.2699
      2 C          63.7572   83.8205   14.5428 C.2     1  UNL1        0.2490
      3 N          63.5016   85.0707   13.7545 N.am    1  UNL1       -0.2760
      4 C          62.6284   85.0235   12.5357 C.3     1  UNL1        0.0954
      5 C          62.3728   86.2739   11.7473 C.3     1  UNL1        0.0416
      6 C          62.9904   87.5713   12.1777 C.3     1  UNL1        0.0807
      7 C          63.8636   87.6184   13.3965 C.3     1  UNL1        0.0416
      8 C          64.1192   86.3682   14.1848 C.3     1  UNL1        0.0954
      9 C          63.1396   82.5230   14.1124 C.ar    1  UNL1        0.0536
     10 C          61.7724   82.1449   14.6000 C.ar    1  UNL1        0.0045
     11 C          61.1549   80.8475   14.1697 C.ar    1  UNL1        0.0001
     12 C          61.9045   79.9281   13.2517 C.ar    1  UNL1        0.0000
     13 C          63.2717   80.3061   12.7641 C.ar    1  UNL1        0.0001
     14 C          63.8893   81.6036   13.1944 C.ar    1  UNL1        0.0045
     15 N          62.7348   88.8215   11.3894 N.pl3   1  UNL1       -0.2872
     16 C          61.7341   88.8122   10.2720 C.ar    1  UNL1        0.0516
     17 C          61.6708   87.6453    9.3317 C.ar    1  UNL1        0.0157
     18 C          60.6701   87.6359    8.2143 C.ar    1  UNL1        0.0127
     19 C          59.7328   88.7935    8.0372 C.ar    1  UNL1        0.0578
     20 CL         58.7321   88.7842    6.9198 Cl      1  UNL1       -0.0822
     21 C          59.7961   89.9605    8.9776 C.ar    1  UNL1        0.0127
     22 C          60.7968   89.9698   10.0950 C.ar    1  UNL1        0.0157
     23 C          63.4799   90.0812   11.7184 C.ar    1  UNL1        0.0710
     24 C          63.9463   90.9861   10.6169 C.ar    1  UNL1        0.0180
     25 C          64.6913   92.2457   10.9459 C.ar    1  UNL1        0.0220
     26 C          64.9700   92.6003   12.3765 C.ar    1  UNL1        0.0990
     27 N          64.5036   91.6953   13.4781 N.ar    1  UNL1       -0.2410
     28 C          63.7586   90.4357   13.1490 C.ar    1  UNL1        0.1136
@<TRIPOS>BOND
     1     1     2    2
     2     2     9    1
     3     9    10   ar
     4    10    11   ar
     5    11    12   ar
     6    12    13   ar
     7    13    14   ar
     8     2     3   am
     9     3     4    1
    10     4     5    1
    11     5     6    1
    12     6    15    1
    13    15    16    1
    14    16    17   ar
    15    17    18   ar
    16    18    19   ar
    17    19    20    1
    18    19    21   ar
    19    21    22   ar
    20    15    23    1
    21    23    24   ar
    22    24    25   ar
    23    25    26   ar
    24    26    27   ar
    25    27    28   ar
    26     6     7    1
    27     7     8    1
    28    14     9   ar
    29     8     3    1
    30    22    16   ar
    31    28    23   ar
@<TRIPOS>MOLECULE
*****
 28 31 0 0 0
SMALL
GASTEIGER

@<TRIPOS>ATOM
      1 O          60.2188   89.8625    8.7926 O.2     1  UNL1       -0.2699
      2 C          60.9986   88.7064    9.3451 C.2     1  UNL1        0.2490
      3 N          61.7103   88.8411   10.6586 N.am    1  UNL1       -0.2760
      4 C          62.4901   87.6850   11.2111 C.3     1  UNL1        0.0954
      5 C          63.2018   87.8198   12.5247 C.3     1  UNL1        0.0416
      6 C          63.1336   89.1106   13.2857 C.3     1  UNL1        0.0807
      7 C          62.3537   90.2667   12.7332 C.3     1  UNL1        0.0416
      8 C          61.6421   90.1320   11.4197 C.3     1  UNL1        0.0954
      9 C          61.0668   87.4156    8.5840 C.ar    1  UNL1        0.0536
     10 C          59.8716   86.9333    7.8168 C.ar    1  UNL1        0.0045
     11 C          59.9398   85.6425    7.0557 C.ar    1  UNL1        0.0001
     12 C          61.2033   84.8340    7.0620 C.ar    1  UNL1        0.0000
     13 C          62.3985   85.3163    7.8292 C.ar    1  UNL1        0.0001
     14 C          62.3303   86.6071    8.5902 C.ar    1  UNL1        0.0045
     15 N          63.8452   89.2453   14.5992 N.pl3   1  UNL1       -0.2872
     16 C          64.7735   90.3998   14.8344 C.ar    1  UNL1        0.0516
     17 C          64.5550   91.3114   16.0053 C.ar    1  UNL1        0.0157
     18 C          65.4833   92.4660   16.2404 C.ar    1  UNL1        0.0127
     19 C          66.6302   92.7089   15.3046 C.ar    1  UNL1        0.0578
     20 CL         67.5585   93.8634   15.5398 Cl      1  UNL1       -0.0822
     21 C          66.8487   91.7972   14.1336 C.ar    1  UNL1        0.0127
     22 C          65.9204   90.6427   13.8985 C.ar    1  UNL1        0.0157
     23 C          63.6286   88.2254   15.6777 C.ar    1  UNL1        0.0710
     24 C          62.9648   88.6223   16.9629 C.ar    1  UNL1        0.0180
     25 C          62.7481   87.6025   18.0412 C.ar    1  UNL1        0.0220
     26 C          63.1953   86.1857   17.8344 C.ar    1  UNL1        0.0990
     27 N          63.8592   85.7888   16.5493 N.ar    1  UNL1       -0.2410
     28 C          64.0758   86.8086   15.4709 C.ar    1  UNL1        0.1136
@<TRIPOS>BOND
     1     1     2    2
     2     2     9    1
     3     9    10   ar
     4    10    11   ar
     5    11    12   ar
     6    12    13   ar
     7    13    14   ar
     8     2     3   am
     9     3     4    1
    10     4     5    1
    11     5     6    1
    12     6    15    1
    13    15    16    1
    14    16    17   ar
    15    17    18   ar
    16    18    19   ar
    17    19    20    1
    18    19    21   ar
    19    21    22   ar
    20    15    23    1
    21    23    24   ar
    22    24    25   ar
    23    25    26   ar
    24    26    27   ar
    25    27    28   ar
    26     6     7    1
    27     7     8    1
    28    14     9   ar
    29     8     3    1
    30    22    16   ar
    31    28    23   ar
