@<TRIPOS>MOLECULE
*****
 31 33 0 0 0
SMALL
GASTEIGER

@<TRIPOS>ATOM
      1 N          65.0801   92.2577   13.1431 N.am    1  UNL1       -0.2503
      2 C          65.4488   91.6935   14.4831 C.2     1  UNL1        0.2559
      3 O          66.4961   92.3681   15.3185 O.2     1  UNL1       -0.2695
      4 C          64.7701   90.4546   14.9878 C.ar    1  UNL1        0.0877
      5 C          65.0666   89.1268   14.3561 C.ar    1  UNL1        0.0107
      6 C          64.3881   87.8879   14.8607 C.ar    1  UNL1        0.0370
      7 C          63.4129   87.9768   15.9970 C.ar    1  UNL1        0.1367
      8 O          62.7343   86.7379   16.5016 O.3     1  UNL1       -0.5054
      9 C          63.1164   89.3046   16.6287 C.ar    1  UNL1        0.0733
     10 C          63.7950   90.5435   16.1240 C.ar    1  UNL1        0.1410
     11 O          63.4985   91.8713   16.7557 O.3     1  UNL1       -0.5053
     12 H          62.9195   85.9085   16.1070 H       1  UNL1        0.2922
     13 H          62.8893   91.9268   17.4656 H       1  UNL1        0.2922
     14 C          61.9380   90.2338   10.6368 C.ar    1  UNL1        0.0537
     15 C          63.0555   90.9850    9.9759 C.ar    1  UNL1        0.0058
     16 C          64.1028   91.6597   10.8113 C.ar    1  UNL1        0.0151
     17 C          64.0327   91.5830   12.3077 C.ar    1  UNL1        0.0545
     18 C          62.9153   90.8318   12.9686 C.ar    1  UNL1        0.0151
     19 C          61.8680   90.1571   12.1332 C.ar    1  UNL1        0.0058
     20 C          60.0236   87.4554    8.5474 C.3     1  UNL1        0.1152
     21 N          61.0709   88.1301    9.3828 N.am    1  UNL1       -0.2726
     22 C          62.2986   87.3756    9.7997 C.3     1  UNL1        0.1152
     23 C          60.8907   89.5591    9.8014 C.2     1  UNL1        0.2491
     24 O          59.6631   90.3135    9.3845 O.2     1  UNL1       -0.2699
     25 C          65.7587   93.4965   12.6385 C.3     1  UNL1        0.1315
     26 C          66.5000   93.4675   11.3348 C.ar    1  UNL1        0.0281
     27 C          67.4412   92.3920   10.8794 C.ar    1  UNL1        0.0111
     28 C          67.9532   92.7687    9.5208 C.ar    1  UNL1        0.0413
     29 BR         68.9201   91.9762    8.6920 Br      1  UNL1       -0.0485
     30 C          67.3284   94.0772    9.1364 C.ar    1  UNL1        0.0418
     31 S          66.4303   94.5091   10.2576 S.2     1  UNL1       -0.0885
@<TRIPOS>BOND
     1    20    21    1
     2    21    22    1
     3    21    23   am
     4    23    24    2
     5    23    14    1
     6    14    15   ar
     7    15    16   ar
     8    16    17   ar
     9    17     1    1
    10     1    25    1
    11    25    26    1
    12    26    27   ar
    13    27    28   ar
    14    28    29    1
    15    28    30   ar
    16    30    31   ar
    17     1     2   am
    18     2     3    2
    19     2     4    1
    20     4     5   ar
    21     5     6   ar
    22     6     7   ar
    23     7     8    1
    24     7     9   ar
    25     9    10   ar
    26    10    11    1
    27    17    18   ar
    28    18    19   ar
    29    19    14   ar
    30    31    26   ar
    31    10     4   ar
    32     8    12    1
    33    11    13    1
@<TRIPOS>MOLECULE
*****
 31 33 0 0 0
SMALL
GASTEIGER

@<TRIPOS>ATOM
      1 N          62.7578   86.7247   11.9492 N.am    1  UNL1       -0.2503
      2 C          61.4740   86.8756   11.1884 C.2     1  UNL1        0.2559
      3 O          60.9740   85.7513   10.3305 O.2     1  UNL1       -0.2695
      4 C          60.6901   88.1508   11.2854 C.ar    1  UNL1        0.0877
      5 C          59.6998   88.3397   12.3962 C.ar    1  UNL1        0.0107
      6 C          58.9159   89.6149   12.4933 C.ar    1  UNL1        0.0370
      7 C          59.1222   90.7012   11.4796 C.ar    1  UNL1        0.1367
      8 O          58.3383   91.9763   11.5767 O.3     1  UNL1       -0.5054
      9 C          60.1125   90.5122   10.3688 C.ar    1  UNL1        0.0733
     10 C          60.8964   89.2370   10.2718 C.ar    1  UNL1        0.1410
     11 O          61.8866   89.0481    9.1610 O.3     1  UNL1       -0.5053
     12 H          57.7198   92.0943   12.2705 H       1  UNL1        0.2922
     13 H          62.0155   89.7266    8.5278 H       1  UNL1        0.2922
     14 C          64.2578   90.0975   14.5230 C.ar    1  UNL1        0.0537
     15 C          63.6671   90.3880   13.1752 C.ar    1  UNL1        0.0058
     16 C          63.1671   89.2637   12.3173 C.ar    1  UNL1        0.0151
     17 C          63.2578   87.8489   12.8071 C.ar    1  UNL1        0.0545
     18 C          63.8486   87.5584   14.1549 C.ar    1  UNL1        0.0151
     19 C          64.3486   88.6827   15.0128 C.ar    1  UNL1        0.0058
     20 C          66.6389   92.8925   16.0291 C.3     1  UNL1        0.1152
     21 N          66.1389   91.7682   15.1712 N.am    1  UNL1       -0.2726
     22 C          67.0200   91.1904   14.1036 C.3     1  UNL1        0.1152
     23 C          64.7578   91.2217   15.3809 C.2     1  UNL1        0.2491
     24 O          63.8768   91.7995   16.4485 O.2     1  UNL1       -0.2699
     25 C          63.5417   85.4495   11.8521 C.3     1  UNL1        0.1315
     26 C          63.1211   84.2483   12.6460 C.ar    1  UNL1        0.0281
     27 C          63.0282   82.8414   12.1340 C.ar    1  UNL1        0.0111
     28 C          62.5692   81.9667   13.2627 C.ar    1  UNL1        0.0413
     29 BR         62.3411   80.4858   13.1940 Br      1  UNL1       -0.0485
     30 C          62.3784   82.8329   14.4724 C.ar    1  UNL1        0.0418
     31 S          62.7195   84.2430   14.0913 S.2     1  UNL1       -0.0885
@<TRIPOS>BOND
     1    20    21    1
     2    21    22    1
     3    21    23   am
     4    23    24    2
     5    23    14    1
     6    14    15   ar
     7    15    16   ar
     8    16    17   ar
     9    17     1    1
    10     1    25    1
    11    25    26    1
    12    26    27   ar
    13    27    28   ar
    14    28    29    1
    15    28    30   ar
    16    30    31   ar
    17     1     2   am
    18     2     3    2
    19     2     4    1
    20     4     5   ar
    21     5     6   ar
    22     6     7   ar
    23     7     8    1
    24     7     9   ar
    25     9    10   ar
    26    10    11    1
    27    17    18   ar
    28    18    19   ar
    29    19    14   ar
    30    31    26   ar
    31    10     4   ar
    32     8    12    1
    33    11    13    1
@<TRIPOS>MOLECULE
*****
 31 33 0 0 0
SMALL
GASTEIGER

@<TRIPOS>ATOM
      1 N          61.7906   88.0508   11.2709 N.am    1  UNL1       -0.2503
      2 C          61.2773   88.2978    9.8833 C.2     1  UNL1        0.2559
      3 O          60.7669   89.6561    9.5032 O.2     1  UNL1       -0.2695
      4 C          61.2745   87.1865    8.8758 C.ar    1  UNL1        0.0877
      5 C          62.5518   86.4755    8.5398 C.ar    1  UNL1        0.0107
      6 C          62.5490   85.3643    7.5323 C.ar    1  UNL1        0.0370
      7 C          61.2688   84.9640    6.8607 C.ar    1  UNL1        0.1367
      8 O          61.2659   83.8528    5.8532 O.3     1  UNL1       -0.5054
      9 C          59.9914   85.6750    7.1967 C.ar    1  UNL1        0.0733
     10 C          59.9943   86.7863    8.2042 C.ar    1  UNL1        0.1410
     11 O          58.7170   87.4974    8.5402 O.3     1  UNL1       -0.5053
     12 H          62.0639   83.4086    5.6434 H       1  UNL1        0.2922
     13 H          57.9173   87.2473    8.1207 H       1  UNL1        0.2922
     14 C          63.3217   83.9759   12.4113 C.ar    1  UNL1        0.0537
     15 C          62.2812   84.1132   11.3398 C.ar    1  UNL1        0.0058
     16 C          61.7708   85.4715   10.9596 C.ar    1  UNL1        0.0151
     17 C          62.3010   86.6925   11.6511 C.ar    1  UNL1        0.0545
     18 C          63.3415   86.5551   12.7227 C.ar    1  UNL1        0.0151
     19 C          63.8519   85.1968   13.1028 C.ar    1  UNL1        0.0058
     20 C          63.6207   80.4498   14.2079 C.3     1  UNL1        0.1152
     21 N          63.1104   81.8081   13.8277 N.am    1  UNL1       -0.2726
     22 C          61.8781   82.3570   14.4839 C.3     1  UNL1        0.1152
     23 C          63.8321   82.6175   12.7915 C.2     1  UNL1        0.2491
     24 O          65.0643   82.0687   12.1354 O.2     1  UNL1       -0.2699
     25 C          61.7934   89.1620   12.2784 C.3     1  UNL1        0.1315
     26 C          62.9410   90.1267   12.3277 C.ar    1  UNL1        0.0281
     27 C          63.4364   90.9666   11.1879 C.ar    1  UNL1        0.0111
     28 C          64.5963   91.7799   11.6813 C.ar    1  UNL1        0.0413
     29 BR         65.3945   92.7585   10.8720 Br      1  UNL1       -0.0485
     30 C          64.8176   91.4427   13.1260 C.ar    1  UNL1        0.0418
     31 S          63.7946   90.4210   13.5256 S.2     1  UNL1       -0.0885
@<TRIPOS>BOND
     1    20    21    1
     2    21    22    1
     3    21    23   am
     4    23    24    2
     5    23    14    1
     6    14    15   ar
     7    15    16   ar
     8    16    17   ar
     9    17     1    1
    10     1    25    1
    11    25    26    1
    12    26    27   ar
    13    27    28   ar
    14    28    29    1
    15    28    30   ar
    16    30    31   ar
    17     1     2   am
    18     2     3    2
    19     2     4    1
    20     4     5   ar
    21     5     6   ar
    22     6     7   ar
    23     7     8    1
    24     7     9   ar
    25     9    10   ar
    26    10    11    1
    27    17    18   ar
    28    18    19   ar
    29    19    14   ar
    30    31    26   ar
    31    10     4   ar
    32     8    12    1
    33    11    13    1
@<TRIPOS>MOLECULE
*****
 31 33 0 0 0
SMALL
GASTEIGER

@<TRIPOS>ATOM
      1 N          63.8525   84.9045   13.3228 N.am    1  UNL1       -0.2503
      2 C          64.3024   85.2960   14.6991 C.2     1  UNL1        0.2559
      3 O          65.0910   84.3306   15.5334 O.2     1  UNL1       -0.2695
      4 C          63.9637   86.6531   15.2412 C.ar    1  UNL1        0.0877
      5 C          64.5213   87.8825   14.5873 C.ar    1  UNL1        0.0107
      6 C          64.1827   89.2395   15.1294 C.ar    1  UNL1        0.0370
      7 C          63.2864   89.3671   16.3254 C.ar    1  UNL1        0.1367
      8 O          62.9477   90.7241   16.8674 O.3     1  UNL1       -0.5054
      9 C          62.7287   88.1377   16.9793 C.ar    1  UNL1        0.0733
     10 C          63.0674   86.7806   16.4372 C.ar    1  UNL1        0.1410
     11 O          62.5098   85.5512   17.0911 O.3     1  UNL1       -0.5053
     12 H          63.2960   91.4920   16.4589 H       1  UNL1        0.2922
     13 H          61.9499   85.6309   17.8382 H       1  UNL1        0.2922
     14 C          61.4867   87.8009   10.8200 C.ar    1  UNL1        0.0537
     15 C          61.0783   86.3590   10.8860 C.ar    1  UNL1        0.0058
     16 C          61.8670   85.3936   11.7202 C.ar    1  UNL1        0.0151
     17 C          63.0639   85.8700   12.4886 C.ar    1  UNL1        0.0545
     18 C          63.4722   87.3118   12.4226 C.ar    1  UNL1        0.0151
     19 C          62.6836   88.2772   11.5884 C.ar    1  UNL1        0.0058
     20 C          59.4464   89.3347    7.7812 C.3     1  UNL1        0.1152
     21 N          60.2350   88.3692    8.6155 N.am    1  UNL1       -0.2726
     22 C          60.5605   87.0066    8.0793 C.3     1  UNL1        0.1152
     23 C          60.6980   88.7663    9.9858 C.2     1  UNL1        0.2491
     24 O          60.3725   90.1289   10.5218 O.2     1  UNL1       -0.2699
     25 C          64.1912   83.5475   12.7808 C.3     1  UNL1        0.1315
     26 C          63.3805   82.3532   13.1886 C.ar    1  UNL1        0.0281
     27 C          61.9042   82.3386   13.4539 C.ar    1  UNL1        0.0111
     28 C          61.5149   80.9402   13.8319 C.ar    1  UNL1        0.0413
     29 BR         60.1328   80.4734   14.1804 Br      1  UNL1       -0.0485
     30 C          62.7507   80.0905   13.8003 C.ar    1  UNL1        0.0418
     31 S          63.9037   80.9638   13.4027 S.2     1  UNL1       -0.0885
@<TRIPOS>BOND
     1    20    21    1
     2    21    22    1
     3    21    23   am
     4    23    24    2
     5    23    14    1
     6    14    15   ar
     7    15    16   ar
     8    16    17   ar
     9    17     1    1
    10     1    25    1
    11    25    26    1
    12    26    27   ar
    13    27    28   ar
    14    28    29    1
    15    28    30   ar
    16    30    31   ar
    17     1     2   am
    18     2     3    2
    19     2     4    1
    20     4     5   ar
    21     5     6   ar
    22     6     7   ar
    23     7     8    1
    24     7     9   ar
    25     9    10   ar
    26    10    11    1
    27    17    18   ar
    28    18    19   ar
    29    19    14   ar
    30    31    26   ar
    31    10     4   ar
    32     8    12    1
    33    11    13    1
@<TRIPOS>MOLECULE
*****
 31 33 0 0 0
SMALL
GASTEIGER

@<TRIPOS>ATOM
      1 N          63.3773   89.4654   12.9201 N.am    1  UNL1       -0.2503
      2 C          62.5472   89.9280   11.7596 C.2     1  UNL1        0.2559
      3 O          62.4152   91.3936   11.4688 O.2     1  UNL1       -0.2695
      4 C          61.8490   88.9249   10.8898 C.ar    1  UNL1        0.0877
      5 C          62.5894   88.2625    9.7660 C.ar    1  UNL1        0.0107
      6 C          61.8913   87.2595    8.8962 C.ar    1  UNL1        0.0370
      7 C          60.4527   86.9189    9.1502 C.ar    1  UNL1        0.1367
      8 O          59.7546   85.9159    8.2804 O.3     1  UNL1       -0.5054
      9 C          59.7123   87.5814   10.2740 C.ar    1  UNL1        0.0733
     10 C          60.4104   88.5844   11.1438 C.ar    1  UNL1        0.1410
     11 O          59.6700   89.2469   12.2675 O.3     1  UNL1       -0.5053
     12 H          60.2171   85.5021    7.5784 H       1  UNL1        0.2922
     13 H          58.7714   89.0342   12.4262 H       1  UNL1        0.2922
     14 C          63.7734   85.0686   13.7924 C.ar    1  UNL1        0.0537
     15 C          64.4208   86.0741   14.6978 C.ar    1  UNL1        0.0058
     16 C          64.2887   87.5397   14.4070 C.ar    1  UNL1        0.0151
     17 C          63.5094   87.9998   13.2109 C.ar    1  UNL1        0.0545
     18 C          62.8620   86.9943   12.3055 C.ar    1  UNL1        0.0151
     19 C          62.9940   85.5287   12.5962 C.ar    1  UNL1        0.0058
     20 C          64.3062   81.1725   13.2574 C.3     1  UNL1        0.1152
     21 N          64.1742   82.6381   12.9666 N.am    1  UNL1       -0.2726
     22 C          64.3110   83.1388   11.5593 C.3     1  UNL1        0.1152
     23 C          63.9054   83.6030   14.0832 C.2     1  UNL1        0.2491
     24 O          63.7686   83.1023   15.4905 O.2     1  UNL1       -0.2699
     25 C          64.0755   90.4685   13.7898 C.3     1  UNL1        0.1315
     26 C          65.1719   91.3198   13.2214 C.ar    1  UNL1        0.0281
     27 C          65.1888   91.9396   11.8555 C.ar    1  UNL1        0.0111
     28 C          66.4712   92.7037   11.7090 C.ar    1  UNL1        0.0413
     29 BR         66.9023   93.4792   10.4996 Br      1  UNL1       -0.0485
     30 C          67.2470   92.5562   12.9843 C.ar    1  UNL1        0.0418
     31 S          66.4440   91.7009   13.9191 S.2     1  UNL1       -0.0885
@<TRIPOS>BOND
     1    20    21    1
     2    21    22    1
     3    21    23   am
     4    23    24    2
     5    23    14    1
     6    14    15   ar
     7    15    16   ar
     8    16    17   ar
     9    17     1    1
    10     1    25    1
    11    25    26    1
    12    26    27   ar
    13    27    28   ar
    14    28    29    1
    15    28    30   ar
    16    30    31   ar
    17     1     2   am
    18     2     3    2
    19     2     4    1
    20     4     5   ar
    21     5     6   ar
    22     6     7   ar
    23     7     8    1
    24     7     9   ar
    25     9    10   ar
    26    10    11    1
    27    17    18   ar
    28    18    19   ar
    29    19    14   ar
    30    31    26   ar
    31    10     4   ar
    32     8    12    1
    33    11    13    1
@<TRIPOS>MOLECULE
*****
 31 33 0 0 0
SMALL
GASTEIGER

@<TRIPOS>ATOM
      1 N          62.4230   94.8153   -1.1897 N.am    1  UNL1       -0.2503
      2 C          63.8473   94.6179   -1.6169 C.2     1  UNL1        0.2559
      3 O          64.9574   94.7708   -0.6197 O.2     1  UNL1       -0.2695
      4 C          64.1615   94.2677   -3.0412 C.ar    1  UNL1        0.0877
      5 C          63.9699   92.8617   -3.5276 C.ar    1  UNL1        0.0107
      6 C          64.2841   92.5114   -4.9518 C.ar    1  UNL1        0.0370
      7 C          64.7899   93.5671   -5.8898 C.ar    1  UNL1        0.1367
      8 O          65.1041   93.2169   -7.3141 O.3     1  UNL1       -0.5054
      9 C          64.9815   94.9731   -5.4034 C.ar    1  UNL1        0.0733
     10 C          64.6673   95.3234   -3.9791 C.ar    1  UNL1        0.1410
     11 O          64.8589   96.7293   -3.4927 O.3     1  UNL1       -0.5053
     12 H          64.9844   92.3386   -7.6179 H       1  UNL1        0.2922
     13 H          65.1748   97.3888   -4.0786 H       1  UNL1        0.2922
     14 C          59.0927   94.3568   -4.1812 C.ar    1  UNL1        0.0537
     15 C          59.9517   95.5864   -4.1977 C.ar    1  UNL1        0.0058
     16 C          61.0618   95.7392   -3.2006 C.ar    1  UNL1        0.0151
     17 C          61.3129   94.6625   -2.1869 C.ar    1  UNL1        0.0545
     18 C          60.4539   93.4330   -2.1703 C.ar    1  UNL1        0.0151
     19 C          59.3438   93.2801   -3.1675 C.ar    1  UNL1        0.0058
     20 C          55.4884   94.5179   -5.8344 C.3     1  UNL1        0.1152
     21 N          56.5985   94.6707   -4.8372 N.am    1  UNL1       -0.2726
     22 C          56.3245   95.2904   -3.4989 C.3     1  UNL1        0.1152
     23 C          57.9826   94.2040   -5.1783 C.2     1  UNL1        0.2491
     24 O          58.2566   93.5844   -6.5166 O.2     1  UNL1       -0.2699
     25 C          62.1089   95.1656    0.2345 C.3     1  UNL1        0.1315
     26 C          61.9492   94.0791    1.2563 C.ar    1  UNL1        0.0281
     27 C          62.9959   93.0803    1.6523 C.ar    1  UNL1        0.0111
     28 C          62.4084   92.1846    2.7023 C.ar    1  UNL1        0.0413
     29 BR         63.1078   91.0440    3.3803 Br      1  UNL1       -0.0485
     30 C          60.9985   92.6298    2.9553 C.ar    1  UNL1        0.0418
     31 S          60.7146   93.8007    2.0616 S.2     1  UNL1       -0.0885
@<TRIPOS>BOND
     1    20    21    1
     2    21    22    1
     3    21    23   am
     4    23    24    2
     5    23    14    1
     6    14    15   ar
     7    15    16   ar
     8    16    17   ar
     9    17     1    1
    10     1    25    1
    11    25    26    1
    12    26    27   ar
    13    27    28   ar
    14    28    29    1
    15    28    30   ar
    16    30    31   ar
    17     1     2   am
    18     2     3    2
    19     2     4    1
    20     4     5   ar
    21     5     6   ar
    22     6     7   ar
    23     7     8    1
    24     7     9   ar
    25     9    10   ar
    26    10    11    1
    27    17    18   ar
    28    18    19   ar
    29    19    14   ar
    30    31    26   ar
    31    10     4   ar
    32     8    12    1
    33    11    13    1
@<TRIPOS>MOLECULE
*****
 31 33 0 0 0
SMALL
GASTEIGER

@<TRIPOS>ATOM
      1 N          63.5780   85.7599   13.1725 N.am    1  UNL1       -0.2503
      2 C          64.0917   84.3772   13.4448 C.2     1  UNL1        0.2559
      3 O          64.9312   84.1147   14.6599 O.2     1  UNL1       -0.2695
      4 C          63.7660   83.2569   12.5019 C.ar    1  UNL1        0.0877
      5 C          64.4730   83.1573   11.1828 C.ar    1  UNL1        0.0107
      6 C          64.1474   82.0370   10.2400 C.ar    1  UNL1        0.0370
      7 C          63.1146   81.0163   10.6163 C.ar    1  UNL1        0.1367
      8 O          62.7890   79.8960    9.6735 O.3     1  UNL1       -0.5054
      9 C          62.4076   81.1158   11.9355 C.ar    1  UNL1        0.0733
     10 C          62.7334   82.2361   12.8783 C.ar    1  UNL1        0.1410
     11 O          62.0264   82.3357   14.1975 O.3     1  UNL1       -0.5053
     12 H          63.2306   79.8338    8.8495 H       1  UNL1        0.2922
     13 H          61.3813   81.6981   14.4326 H       1  UNL1        0.2922
     14 C          61.0597   86.5472    9.5272 C.ar    1  UNL1        0.0537
     15 C          62.4358   85.9696    9.3776 C.ar    1  UNL1        0.0058
     16 C          63.2753   85.7071   10.5926 C.ar    1  UNL1        0.0151
     17 C          62.7386   86.0223   11.9574 C.ar    1  UNL1        0.0545
     18 C          61.3624   86.6000   12.1070 C.ar    1  UNL1        0.0151
     19 C          60.5229   86.8624   10.8919 C.ar    1  UNL1        0.0058
     20 C          58.9577   88.4726    6.7659 C.3     1  UNL1        0.1152
     21 N          59.7972   88.2101    7.9810 N.am    1  UNL1       -0.2726
     22 C          60.2136   89.3483    8.8650 C.3     1  UNL1        0.1152
     23 C          60.2202   86.8097    8.3121 C.2     1  UNL1        0.2491
     24 O          59.8038   85.6717    7.4281 O.2     1  UNL1       -0.2699
     25 C          63.9037   86.8801   14.1153 C.3     1  UNL1        0.1315
     26 C          63.8831   88.2992   13.6295 C.ar    1  UNL1        0.0281
     27 C          63.3759   88.7680   12.2980 C.ar    1  UNL1        0.0111
     28 C          63.5454   90.2571   12.2356 C.ar    1  UNL1        0.0413
     29 BR         63.1690   91.1398   11.0827 Br      1  UNL1       -0.0485
     30 C          64.1573   90.7086   13.5285 C.ar    1  UNL1        0.0418
     31 S          64.3660   89.4985   14.3901 S.2     1  UNL1       -0.0885
@<TRIPOS>BOND
     1    20    21    1
     2    21    22    1
     3    21    23   am
     4    23    24    2
     5    23    14    1
     6    14    15   ar
     7    15    16   ar
     8    16    17   ar
     9    17     1    1
    10     1    25    1
    11    25    26    1
    12    26    27   ar
    13    27    28   ar
    14    28    29    1
    15    28    30   ar
    16    30    31   ar
    17     1     2   am
    18     2     3    2
    19     2     4    1
    20     4     5   ar
    21     5     6   ar
    22     6     7   ar
    23     7     8    1
    24     7     9   ar
    25     9    10   ar
    26    10    11    1
    27    17    18   ar
    28    18    19   ar
    29    19    14   ar
    30    31    26   ar
    31    10     4   ar
    32     8    12    1
    33    11    13    1
@<TRIPOS>MOLECULE
*****
 31 33 0 0 0
SMALL
GASTEIGER

@<TRIPOS>ATOM
      1 N          63.2307   87.9461   12.4046 N.am    1  UNL1       -0.2503
      2 C          62.4401   88.8085   11.4660 C.2     1  UNL1        0.2559
      3 O          62.5429   90.3024   11.5533 O.2     1  UNL1       -0.2695
      4 C          61.5465   88.1769   10.4399 C.ar    1  UNL1        0.0877
      5 C          62.1412   87.5229    9.2281 C.ar    1  UNL1        0.0107
      6 C          61.2477   86.8914    8.2021 C.ar    1  UNL1        0.0370
      7 C          59.7594   86.9139    8.3878 C.ar    1  UNL1        0.1367
      8 O          58.8659   86.2823    7.3618 O.3     1  UNL1       -0.5054
      9 C          59.1646   87.5679    9.5996 C.ar    1  UNL1        0.0733
     10 C          60.0582   88.1995   10.6257 C.ar    1  UNL1        0.1410
     11 O          59.4635   88.8535   11.8375 O.3     1  UNL1       -0.5053
     12 H          59.2374   85.8738    6.6048 H       1  UNL1        0.2922
     13 H          58.5338   88.8676   11.9535 H       1  UNL1        0.2922
     14 C          62.9222   83.4644   12.1426 C.ar    1  UNL1        0.0537
     15 C          62.0216   84.3281   11.3103 C.ar    1  UNL1        0.0058
     16 C          62.1244   85.8220   11.3976 C.ar    1  UNL1        0.0151
     17 C          63.1279   86.4522   12.3173 C.ar    1  UNL1        0.0545
     18 C          64.0285   85.5885   13.1496 C.ar    1  UNL1        0.0151
     19 C          63.9257   84.0946   13.0622 C.ar    1  UNL1        0.0058
     20 C          62.2451   79.6867   13.1527 C.3     1  UNL1        0.1152
     21 N          62.3480   81.1806   13.2400 N.am    1  UNL1       -0.2726
     22 C          61.9794   81.8846   14.5123 C.3     1  UNL1        0.1152
     23 C          62.8194   81.9704   12.0552 C.2     1  UNL1        0.2491
     24 O          63.1879   81.2664   10.7831 O.2     1  UNL1       -0.2699
     25 C          64.1243   88.5777   13.4306 C.3     1  UNL1        0.1315
     26 C          63.7080   88.6072   14.8714 C.ar    1  UNL1        0.0281
     27 C          63.4855   87.4117   15.7496 C.ar    1  UNL1        0.0111
     28 C          63.0812   87.9031   17.1079 C.ar    1  UNL1        0.0413
     29 BR         62.7605   87.0459   18.2962 Br      1  UNL1       -0.0485
     30 C          63.0538   89.4024   17.0692 C.ar    1  UNL1        0.0418
     31 S          63.4413   89.8376   15.6870 S.2     1  UNL1       -0.0885
@<TRIPOS>BOND
     1    20    21    1
     2    21    22    1
     3    21    23   am
     4    23    24    2
     5    23    14    1
     6    14    15   ar
     7    15    16   ar
     8    16    17   ar
     9    17     1    1
    10     1    25    1
    11    25    26    1
    12    26    27   ar
    13    27    28   ar
    14    28    29    1
    15    28    30   ar
    16    30    31   ar
    17     1     2   am
    18     2     3    2
    19     2     4    1
    20     4     5   ar
    21     5     6   ar
    22     6     7   ar
    23     7     8    1
    24     7     9   ar
    25     9    10   ar
    26    10    11    1
    27    17    18   ar
    28    18    19   ar
    29    19    14   ar
    30    31    26   ar
    31    10     4   ar
    32     8    12    1
    33    11    13    1
@<TRIPOS>MOLECULE
*****
 31 33 0 0 0
SMALL
GASTEIGER

@<TRIPOS>ATOM
      1 N          63.3247   84.8163   12.6223 N.am    1  UNL1       -0.2503
      2 C          62.4428   84.6347   11.4226 C.2     1  UNL1        0.2559
      3 O          62.1430   83.2557   10.9140 O.2     1  UNL1       -0.2695
      4 C          61.8606   85.8320   10.7316 C.ar    1  UNL1        0.0877
      5 C          60.8631   86.6972   11.4432 C.ar    1  UNL1        0.0107
      6 C          60.2809   87.8945   10.7522 C.ar    1  UNL1        0.0370
      7 C          60.6962   88.2266    9.3495 C.ar    1  UNL1        0.1367
      8 O          60.1140   89.4239    8.6585 O.3     1  UNL1       -0.5054
      9 C          61.6937   87.3614    8.6380 C.ar    1  UNL1        0.0733
     10 C          62.2759   86.1640    9.3290 C.ar    1  UNL1        0.1410
     11 O          63.2734   85.2988    8.6174 O.3     1  UNL1       -0.5053
     12 H          59.4909   89.9644    9.1031 H       1  UNL1        0.2922
     13 H          63.5328   85.5062    7.7413 H       1  UNL1        0.2922
     14 C          64.2241   88.9530   14.1481 C.ar    1  UNL1        0.0537
     15 C          63.5743   88.7727   12.8083 C.ar    1  UNL1        0.0058
     16 C          63.2745   87.3937   12.2997 C.ar    1  UNL1        0.0151
     17 C          63.6245   86.1952   13.1309 C.ar    1  UNL1        0.0545
     18 C          64.2743   86.3756   14.4707 C.ar    1  UNL1        0.0151
     19 C          64.5741   87.7545   14.9793 C.ar    1  UNL1        0.0058
     20 C          64.2561   92.1664   16.4770 C.3     1  UNL1        0.1152
     21 N          63.9563   90.7874   15.9683 N.am    1  UNL1       -0.2726
     22 C          63.0888   89.8640   16.7714 C.3     1  UNL1        0.1152
     23 C          64.5239   90.3320   14.6568 C.2     1  UNL1        0.2491
     24 O          65.3914   91.2554   13.8538 O.2     1  UNL1       -0.2699
     25 C          63.9069   83.6190   13.3133 C.3     1  UNL1        0.1315
     26 C          63.0980   82.3628   13.4462 C.ar    1  UNL1        0.0281
     27 C          61.6795   82.2742   13.9259 C.ar    1  UNL1        0.0111
     28 C          61.2703   80.8313   13.8990 C.ar    1  UNL1        0.0413
     29 BR         59.9309   80.2871   14.2983 Br      1  UNL1       -0.0485
     30 C          62.4359   80.0281   13.4027 C.ar    1  UNL1        0.0418
     31 S          63.5655   80.9746   13.1229 S.2     1  UNL1       -0.0885
@<TRIPOS>BOND
     1    20    21    1
     2    21    22    1
     3    21    23   am
     4    23    24    2
     5    23    14    1
     6    14    15   ar
     7    15    16   ar
     8    16    17   ar
     9    17     1    1
    10     1    25    1
    11    25    26    1
    12    26    27   ar
    13    27    28   ar
    14    28    29    1
    15    28    30   ar
    16    30    31   ar
    17     1     2   am
    18     2     3    2
    19     2     4    1
    20     4     5   ar
    21     5     6   ar
    22     6     7   ar
    23     7     8    1
    24     7     9   ar
    25     9    10   ar
    26    10    11    1
    27    17    18   ar
    28    18    19   ar
    29    19    14   ar
    30    31    26   ar
    31    10     4   ar
    32     8    12    1
    33    11    13    1
