@<TRIPOS>MOLECULE
*****
 45 49 0 0 0
SMALL
GASTEIGER

@<TRIPOS>ATOM
      1 C          64.4476   90.4240   13.3207 C.3     1  UNL1        0.0735
      2 C          63.5949   90.7311   12.1255 C.3     1  UNL1        0.0217
      3 C          62.9700   89.4492   11.6603 C.3     1  UNL1        0.0283
      4 C          63.4366   88.3500   12.5680 C.3     1  UNL1        0.1361
      5 C          63.1478   86.8782   12.5927 C.ar    1  UNL1        0.0114
      6 C          62.2345   86.2758   11.5665 C.ar    1  UNL1       -0.0002
      7 C          61.9458   84.8041   11.5913 C.ar    1  UNL1        0.0177
      8 C          62.5703   83.9348   12.6421 C.ar    1  UNL1        0.1045
      9 N          63.4835   84.5372   13.6683 N.ar    1  UNL1       -0.2511
     10 C          63.7723   86.0089   13.6436 C.ar    1  UNL1        0.0562
     11 C          64.6855   86.6114   14.6698 C.3     1  UNL1        0.0456
     12 C          64.9743   88.0831   14.6451 C.3     1  UNL1        0.0099
     13 C          64.3498   88.9524   13.5942 C.3     1  UNL1        0.0430
     14 O          67.3250   90.9018   12.6190 O.2     1  UNL1       -0.2751
     15 C          66.6949   91.6535   13.7539 C.2     1  UNL1        0.2220
     16 N          65.2563   91.4147   14.1048 N.am    1  UNL1       -0.3059
     17 H          64.8428   91.9081   14.8496 H       1  UNL1        0.1494
     18 C          67.5037   92.6442   14.5380 C.3     1  UNL1        0.0800
     19 C          68.6950   92.1843   15.3249 C.3     1  UNL1        0.0344
     20 C          69.5038   93.1748   16.1090 C.3     1  UNL1        0.1513
     21 S          69.1213   94.6252   16.1060 S.O2    1  UNL1       -0.0100
     22 O          69.1567   96.0930   16.4134 O.2     1  UNL1       -0.1730
     23 O          70.3249   94.6751   16.9998 O.2     1  UNL1       -0.1730
     24 C          67.9300   95.0851   15.3190 C.3     1  UNL1        0.1513
     25 C          67.1212   94.0946   14.5350 C.3     1  UNL1        0.0344
     26 S          62.5081   87.8922   11.4825 S.O2    1  UNL1        0.0091
     27 O          62.9928   87.5731   10.9360 O.2     1  UNL1       -0.1684
     28 O          61.3365   88.3966   12.2718 O.2     1  UNL1       -0.1684
     29 C          61.5795   87.4343   10.3970 C.ar    1  UNL1        0.1060
     30 C          60.1115   87.7263   10.4932 C.ar    1  UNL1        0.0207
     31 C          59.1830   87.2685    9.4077 C.ar    1  UNL1        0.0310
     32 C          59.7226   86.5186    8.2260 C.ar    1  UNL1        0.1402
     33 F          58.7941   86.0607    7.1405 F       1  UNL1       -0.2042
     34 C          61.1908   86.2265    8.1298 C.ar    1  UNL1        0.0310
     35 C          62.1192   86.6844    9.2153 C.ar    1  UNL1        0.0207
     36 C          62.2815   82.4630   12.6668 C.3     1  UNL1        0.3398
     37 F          62.1013   82.4735   11.1778 F       1  UNL1       -0.2160
     38 C          61.9928   80.9913   12.6915 C.3     1  UNL1        0.4378
     39 F          61.7039   79.5195   12.7161 F       1  UNL1       -0.1666
     40 F          63.0475   80.7669   11.6489 F       1  UNL1       -0.1666
     41 F          60.9106   81.0346   13.7293 F       1  UNL1       -0.1666
     42 C          62.4618   82.4526   14.1559 C.3     1  UNL1        0.4378
     43 F          62.6420   82.4422   15.6450 F       1  UNL1       -0.1666
     44 F          63.6222   81.5030   14.1930 F       1  UNL1       -0.1666
     45 F          61.3924   83.3772   14.6575 F       1  UNL1       -0.1666
@<TRIPOS>BOND
     1    14    15    2
     2    15    16   am
     3     1    16    1
     4     1     2    1
     5     2     3    1
     6     3     4    1
     7     4    26    1
     8    26    27    2
     9    26    28    2
    10    26    29    1
    11    29    30   ar
    12    30    31   ar
    13    31    32   ar
    14    32    33    1
    15    32    34   ar
    16    34    35   ar
    17     4     5    1
    18     5     6   ar
    19     6     7   ar
    20     7     8   ar
    21     8    36    1
    22    36    37    1
    23    36    38    1
    24    38    39    1
    25    38    40    1
    26    38    41    1
    27    36    42    1
    28    42    43    1
    29    42    44    1
    30    42    45    1
    31     8     9   ar
    32     9    10   ar
    33    10    11    1
    34    11    12    1
    35    13    12    1
    36    15    18    1
    37    18    19    1
    38    19    20    1
    39    20    21    1
    40    21    22    2
    41    21    23    2
    42    21    24    1
    43    24    25    1
    44    13     1    1
    45    25    18    1
    46    13     4    1
    47    35    29   ar
    48    10     5   ar
    49    16    17    1
