@<TRIPOS>MOLECULE
*****
 30 34 0 0 0
SMALL
GASTEIGER

@<TRIPOS>ATOM
      1 C          63.1693   89.7490   13.1599 C.3     1  UNL1        0.0294
      2 C          63.8372   90.6979   14.1105 C.3     1  UNL1        0.0666
      3 S          65.2932   91.0203   13.9491 S.3     1  UNL1       -0.0756
      4 C          66.1323   94.2294   11.9333 C.ar    1  UNL1        0.2029
      5 N          66.5728   94.6287   13.3105 N.ar    1  UNL1       -0.1250
      6 N          66.3121   93.4751   14.2332 N.ar    1  UNL1       -0.1220
      7 C          65.7105   92.3630   13.4263 C.ar    1  UNL1        0.1933
      8 N          65.5993   92.8291   12.0049 N.ar    1  UNL1       -0.2860
      9 C          65.0515   92.0344   10.8567 C.3     1  UNL1        0.1341
     10 C          68.0416   93.6839    9.3435 C.3     1  UNL1        0.0556
     11 C          67.0886   94.8302    9.5106 C.ar    1  UNL1        0.1001
     12 N          66.8459   95.9270    8.5166 N.ar    1  UNL1       -0.2085
     13 C          65.8183   96.8556    9.0926 C.ar    1  UNL1        0.2849
     14 O          65.4259   96.3327   10.4426 O.2     1  UNL1       -0.4283
     15 C          66.2110   95.0809   10.7009 C.ar    1  UNL1        0.1964
     16 C          62.1814   90.2645   12.1558 C.3     1  UNL1        0.0730
     17 N          61.6863   89.3662   11.0613 N.3     1  UNL1       -0.2726
     18 C          60.7800   89.7659    9.9349 C.3     1  UNL1        0.0721
     19 C          60.5442   88.5571    9.0786 C.3     1  UNL1        0.0190
     20 C          61.3048   87.4104    9.6757 C.3     1  UNL1        0.0201
     21 C          60.8919   86.3971    8.6497 C.3     1  UNL1        0.0061
     22 C          61.7983   85.9975    9.7761 C.3     1  UNL1        0.0237
     23 C          62.0107   87.9104   10.9011 C.3     1  UNL1        0.0724
     24 C          62.6065   84.9510   10.4843 C.ar    1  UNL1       -0.0223
     25 C          62.5167   84.8159   11.9756 C.ar    1  UNL1       -0.0020
     26 C          63.3249   83.7694   12.6838 C.ar    1  UNL1        0.0293
     27 C          64.2228   82.8580   11.9009 C.ar    1  UNL1        0.1401
     28 F          65.0310   81.8115   12.6092 F       1  UNL1       -0.2042
     29 C          64.3126   82.9931   10.4097 C.ar    1  UNL1        0.0293
     30 C          63.5044   84.0396    9.7014 C.ar    1  UNL1       -0.0020
@<TRIPOS>BOND
     1    10    11    1
     2    11    12   ar
     3    12    13   ar
     4    13    14   ar
     5    14    15   ar
     6    15     4    1
     7     4     5   ar
     8     5     6   ar
     9     6     7   ar
    10     7     3    1
    11     3     2    1
    12     2     1    1
    13     1    16    1
    14    16    17    1
    15    17    18    1
    16    18    19    1
    17    20    19    1
    18    20    21    1
    19    21    22    1
    20    22    24    1
    21    24    25   ar
    22    25    26   ar
    23    26    27   ar
    24    27    28    1
    25    27    29   ar
    26    29    30   ar
    27    20    23    1
    28     7     8   ar
    29     8     9    1
    30    15    11   ar
    31     8     4   ar
    32    23    17    1
    33    22    20    1
    34    30    24   ar
@<TRIPOS>MOLECULE
*****
 30 34 0 0 0
SMALL
GASTEIGER

@<TRIPOS>ATOM
      1 C          64.1987   83.3628   14.0767 C.3     1  UNL1        0.0294
      2 C          63.7440   82.9054   12.7224 C.3     1  UNL1        0.0666
      3 S          63.8396   83.8319   11.5467 S.3     1  UNL1       -0.0756
      4 C          61.3053   86.4846   10.2793 C.ar    1  UNL1        0.2029
      5 N          61.0807   86.5536   11.7608 N.ar    1  UNL1       -0.1250
      6 N          62.0027   85.5684   12.4159 N.ar    1  UNL1       -0.1220
      7 C          62.7972   84.8903   11.3392 C.ar    1  UNL1        0.1933
      8 N          62.3662   85.4565   10.0187 N.ar    1  UNL1       -0.2860
      9 C          62.9019   85.0637    8.6739 C.3     1  UNL1        0.1341
     10 C          61.4527   89.7285    9.9557 C.3     1  UNL1        0.0556
     11 C          60.6617   88.7913    9.0919 C.ar    1  UNL1        0.1001
     12 N          59.7996   89.1806    7.9278 N.ar    1  UNL1       -0.2085
     13 C          59.1990   87.9302    7.3571 C.ar    1  UNL1        0.2849
     14 O          59.6900   86.7680    8.1685 O.2     1  UNL1       -0.4283
     15 C          60.5939   87.3003    9.2407 C.ar    1  UNL1        0.1964
     16 C          64.9025   84.6789   14.2267 C.3     1  UNL1        0.0730
     17 N          64.3067   85.7544   15.0860 N.3     1  UNL1       -0.2726
     18 C          63.5907   85.5473   16.3877 C.3     1  UNL1        0.0721
     19 C          63.1638   86.8907   16.9007 C.3     1  UNL1        0.0190
     20 C          63.6160   87.9280   15.9160 C.3     1  UNL1        0.0201
     21 C          63.0708   89.1060   16.6677 C.3     1  UNL1        0.0061
     22 C          63.7868   89.3130   15.3660 C.3     1  UNL1        0.0237
     23 C          64.3224   87.2257   14.7945 C.3     1  UNL1        0.0724
     24 C          64.2988   90.2322   14.2969 C.ar    1  UNL1       -0.0223
     25 C          65.5735   90.9938   14.5099 C.ar    1  UNL1       -0.0020
     26 C          66.0855   91.9129   13.4408 C.ar    1  UNL1        0.0293
     27 C          65.3228   92.0706   12.1588 C.ar    1  UNL1        0.1401
     28 F          65.8349   92.9897   11.0897 F       1  UNL1       -0.2042
     29 C          64.0482   91.3090   11.9459 C.ar    1  UNL1        0.0293
     30 C          63.5362   90.3898   13.0149 C.ar    1  UNL1       -0.0020
@<TRIPOS>BOND
     1    10    11    1
     2    11    12   ar
     3    12    13   ar
     4    13    14   ar
     5    14    15   ar
     6    15     4    1
     7     4     5   ar
     8     5     6   ar
     9     6     7   ar
    10     7     3    1
    11     3     2    1
    12     2     1    1
    13     1    16    1
    14    16    17    1
    15    17    18    1
    16    18    19    1
    17    20    19    1
    18    20    21    1
    19    21    22    1
    20    22    24    1
    21    24    25   ar
    22    25    26   ar
    23    26    27   ar
    24    27    28    1
    25    27    29   ar
    26    29    30   ar
    27    20    23    1
    28     7     8   ar
    29     8     9    1
    30    15    11   ar
    31     8     4   ar
    32    23    17    1
    33    22    20    1
    34    30    24   ar
@<TRIPOS>MOLECULE
*****
 30 34 0 0 0
SMALL
GASTEIGER

@<TRIPOS>ATOM
      1 C          64.5481   88.2907   14.5505 C.3     1  UNL1        0.0294
      2 C          63.7394   89.4786   14.9804 C.3     1  UNL1        0.0666
      3 S          64.2844   90.8637   14.7949 S.3     1  UNL1       -0.0756
      4 C          65.4233   92.6755   11.5567 C.ar    1  UNL1        0.2029
      5 N          64.3682   91.7551   11.0182 N.ar    1  UNL1       -0.1250
      6 N          63.8132   90.9645   12.1657 N.ar    1  UNL1       -0.1220
      7 C          64.5252   91.3961   13.4134 C.ar    1  UNL1        0.1933
      8 N          65.5202   92.4536   13.0371 N.ar    1  UNL1       -0.2860
      9 C          66.4492   93.1643   13.9762 C.3     1  UNL1        0.1341
     10 C          68.1326   91.9788    9.8762 C.3     1  UNL1        0.0556
     11 C          67.4835   93.3269    9.9831 C.ar    1  UNL1        0.1001
     12 N          67.9658   94.5914    9.3363 N.ar    1  UNL1       -0.2085
     13 C          67.0185   95.6932    9.7090 C.ar    1  UNL1        0.2849
     14 O          65.9508   95.1096   10.5861 O.2     1  UNL1       -0.4283
     15 C          66.2382   93.6471   10.7555 C.ar    1  UNL1        0.1964
     16 C          64.2387   86.9320   15.1055 C.3     1  UNL1        0.0730
     17 N          64.0138   85.7757   14.1767 N.3     1  UNL1       -0.2726
     18 C          64.5315   84.3805   14.3644 C.3     1  UNL1        0.0721
     19 C          64.0694   83.5543   13.2008 C.3     1  UNL1        0.0190
     20 C          63.2661   84.4389   12.2941 C.3     1  UNL1        0.0201
     21 C          62.9585   83.3816   11.2756 C.3     1  UNL1        0.0061
     22 C          62.4409   84.7768   11.0879 C.3     1  UNL1        0.0237
     23 C          63.2318   85.8119   12.8972 C.3     1  UNL1        0.0724
     24 C          61.6655   85.7775   10.2832 C.ar    1  UNL1       -0.0223
     25 C          61.6766   85.7055    8.7850 C.ar    1  UNL1       -0.0020
     26 C          60.9013   86.7062    7.9803 C.ar    1  UNL1        0.0293
     27 C          60.1149   87.7788    8.6739 C.ar    1  UNL1        0.1401
     28 F          59.3395   88.7794    7.8692 F       1  UNL1       -0.2042
     29 C          60.1038   87.8507   10.1721 C.ar    1  UNL1        0.0293
     30 C          60.8791   86.8501   10.9768 C.ar    1  UNL1       -0.0020
@<TRIPOS>BOND
     1    10    11    1
     2    11    12   ar
     3    12    13   ar
     4    13    14   ar
     5    14    15   ar
     6    15     4    1
     7     4     5   ar
     8     5     6   ar
     9     6     7   ar
    10     7     3    1
    11     3     2    1
    12     2     1    1
    13     1    16    1
    14    16    17    1
    15    17    18    1
    16    18    19    1
    17    20    19    1
    18    20    21    1
    19    21    22    1
    20    22    24    1
    21    24    25   ar
    22    25    26   ar
    23    26    27   ar
    24    27    28    1
    25    27    29   ar
    26    29    30   ar
    27    20    23    1
    28     7     8   ar
    29     8     9    1
    30    15    11   ar
    31     8     4   ar
    32    23    17    1
    33    22    20    1
    34    30    24   ar
@<TRIPOS>MOLECULE
*****
 30 34 0 0 0
SMALL
GASTEIGER

@<TRIPOS>ATOM
      1 C          64.5265   88.5311   14.4802 C.3     1  UNL1        0.0294
      2 C          63.6686   89.7083   14.8386 C.3     1  UNL1        0.0666
      3 S          64.3043   91.0233   15.1799 S.3     1  UNL1       -0.0756
      4 C          66.8254   92.2954   12.5169 C.ar    1  UNL1        0.2029
      5 N          67.6772   92.3074   13.7516 N.ar    1  UNL1       -0.1250
      6 N          66.8364   91.8323   14.8994 N.ar    1  UNL1       -0.1220
      7 C          65.4650   91.5267   14.3742 C.ar    1  UNL1        0.1933
      8 N          65.4582   91.8129   12.9017 N.ar    1  UNL1       -0.2860
      9 C          64.2894   91.6459   11.9765 C.3     1  UNL1        0.1341
     10 C          65.8604   94.9573   10.8944 C.3     1  UNL1        0.0556
     11 C          66.8203   93.9191   10.3936 C.ar    1  UNL1        0.1001
     12 N          67.5052   93.9222    9.0591 N.ar    1  UNL1       -0.2085
     13 C          68.3720   92.7005    8.9801 C.ar    1  UNL1        0.2849
     14 O          68.2228   91.9424   10.2658 O.2     1  UNL1       -0.4283
     15 C          67.2638   92.6956   11.1394 C.ar    1  UNL1        0.1964
     16 C          64.2437   87.1862   15.0813 C.3     1  UNL1        0.0730
     17 N          64.0082   86.0017   14.1917 N.3     1  UNL1       -0.2726
     18 C          64.5228   84.6114   14.4201 C.3     1  UNL1        0.0721
     19 C          64.0493   83.7499   13.2871 C.3     1  UNL1        0.0190
     20 C          63.2420   84.6078   12.3585 C.3     1  UNL1        0.0201
     21 C          62.9234   83.5194   11.3767 C.3     1  UNL1        0.0061
     22 C          62.4087   84.9097   11.1483 C.3     1  UNL1        0.0237
     23 C          63.2166   85.9995   12.9176 C.3     1  UNL1        0.0724
     24 C          61.6305   85.8867   10.3178 C.ar    1  UNL1       -0.0223
     25 C          61.6418   85.7756    8.8220 C.ar    1  UNL1       -0.0020
     26 C          60.8636   86.7526    7.9914 C.ar    1  UNL1        0.0293
     27 C          60.0741   87.8408    8.6568 C.ar    1  UNL1        0.1401
     28 F          59.2958   88.8178    7.8263 F       1  UNL1       -0.2042
     29 C          60.0628   87.9519   10.1526 C.ar    1  UNL1        0.0293
     30 C          60.8410   86.9749   10.9832 C.ar    1  UNL1       -0.0020
@<TRIPOS>BOND
     1    10    11    1
     2    11    12   ar
     3    12    13   ar
     4    13    14   ar
     5    14    15   ar
     6    15     4    1
     7     4     5   ar
     8     5     6   ar
     9     6     7   ar
    10     7     3    1
    11     3     2    1
    12     2     1    1
    13     1    16    1
    14    16    17    1
    15    17    18    1
    16    18    19    1
    17    20    19    1
    18    20    21    1
    19    21    22    1
    20    22    24    1
    21    24    25   ar
    22    25    26   ar
    23    26    27   ar
    24    27    28    1
    25    27    29   ar
    26    29    30   ar
    27    20    23    1
    28     7     8   ar
    29     8     9    1
    30    15    11   ar
    31     8     4   ar
    32    23    17    1
    33    22    20    1
    34    30    24   ar
@<TRIPOS>MOLECULE
*****
 30 34 0 0 0
SMALL
GASTEIGER

@<TRIPOS>ATOM
      1 C          60.5446   88.5424   10.5296 C.3     1  UNL1        0.0294
      2 C          60.9483   89.9380   10.9032 C.3     1  UNL1        0.0666
      3 S          62.3892   90.3478   10.8268 S.3     1  UNL1       -0.0756
      4 C          64.9337   90.9287   13.6997 C.ar    1  UNL1        0.2029
      5 N          64.1386   89.7795   14.2446 N.ar    1  UNL1       -0.1250
      6 N          63.0886   89.4220   13.2348 N.ar    1  UNL1       -0.1220
      7 C          63.2348   90.3503   12.0657 C.ar    1  UNL1        0.1933
      8 N          64.3751   91.2815   12.3529 N.ar    1  UNL1       -0.2860
      9 C          64.8700   92.3738   11.4518 C.3     1  UNL1        0.1341
     10 C          64.8654   92.3221   16.6499 C.3     1  UNL1        0.0556
     11 C          66.0538   92.2467   15.7377 C.ar    1  UNL1        0.1001
     12 N          67.4194   92.7985   16.0214 N.ar    1  UNL1       -0.2085
     13 C          68.2949   92.4991   14.8407 C.ar    1  UNL1        0.2849
     14 O          67.4702   91.7623   13.8273 O.2     1  UNL1       -0.4283
     15 C          66.0852   91.6063   14.3817 C.ar    1  UNL1        0.1964
     16 C          61.2163   87.8492    9.3814 C.3     1  UNL1        0.0730
     17 N          61.9734   86.5753    9.6136 N.3     1  UNL1       -0.2726
     18 C          62.4298   85.6155    8.5551 C.3     1  UNL1        0.0721
     19 C          63.1456   84.4846    9.2324 C.3     1  UNL1        0.0190
     20 C          63.1316   84.7455   10.7095 C.3     1  UNL1        0.0201
     21 C          63.8831   83.5059   11.0949 C.3     1  UNL1        0.0061
     22 C          63.4267   84.4657   12.1534 C.3     1  UNL1        0.0237
     23 C          62.4071   86.0377   10.9451 C.3     1  UNL1        0.0724
     24 C          63.3336   84.8584   13.5980 C.ar    1  UNL1       -0.0223
     25 C          62.3829   84.1415   14.5103 C.ar    1  UNL1       -0.0020
     26 C          62.2898   84.5342   15.9550 C.ar    1  UNL1        0.0293
     27 C          63.1475   85.6437   16.4874 C.ar    1  UNL1        0.1401
     28 F          63.0544   86.0363   17.9321 F       1  UNL1       -0.2042
     29 C          64.0982   86.3605   15.5751 C.ar    1  UNL1        0.0293
     30 C          64.1913   85.9679   14.1304 C.ar    1  UNL1       -0.0020
@<TRIPOS>BOND
     1    10    11    1
     2    11    12   ar
     3    12    13   ar
     4    13    14   ar
     5    14    15   ar
     6    15     4    1
     7     4     5   ar
     8     5     6   ar
     9     6     7   ar
    10     7     3    1
    11     3     2    1
    12     2     1    1
    13     1    16    1
    14    16    17    1
    15    17    18    1
    16    18    19    1
    17    20    19    1
    18    20    21    1
    19    21    22    1
    20    22    24    1
    21    24    25   ar
    22    25    26   ar
    23    26    27   ar
    24    27    28    1
    25    27    29   ar
    26    29    30   ar
    27    20    23    1
    28     7     8   ar
    29     8     9    1
    30    15    11   ar
    31     8     4   ar
    32    23    17    1
    33    22    20    1
    34    30    24   ar
@<TRIPOS>MOLECULE
*****
 30 34 0 0 0
SMALL
GASTEIGER

@<TRIPOS>ATOM
      1 C          63.7821   89.2882   13.7206 C.3     1  UNL1        0.0294
      2 C          64.0615   89.9299   15.0473 C.3     1  UNL1        0.0666
      3 S          64.6884   91.2914   15.1048 S.3     1  UNL1       -0.0756
      4 C          67.1750   92.2477   12.2819 C.ar    1  UNL1        0.2029
      5 N          68.1150   91.9974   13.4238 N.ar    1  UNL1       -0.1250
      6 N          67.2979   91.6087   14.6202 N.ar    1  UNL1       -0.1220
      7 C          65.8530   91.6187   14.2178 C.ar    1  UNL1        0.1933
      8 N          65.7769   92.0136   12.7727 N.ar    1  UNL1       -0.2860
      9 C          64.5230   92.1505   11.9608 C.3     1  UNL1        0.1341
     10 C          66.4339   95.0812   10.8426 C.3     1  UNL1        0.0556
     11 C          67.2240   93.9620   10.2316 C.ar    1  UNL1        0.1001
     12 N          67.8121   93.9487    8.8518 N.ar    1  UNL1       -0.2085
     13 C          68.5163   92.6382    8.6606 C.ar    1  UNL1        0.2849
     14 O          68.3633   91.8414    9.9223 O.2     1  UNL1       -0.4283
     15 C          67.5646   92.6596   10.8932 C.ar    1  UNL1        0.1964
     16 C          62.5945   89.7214   12.9132 C.3     1  UNL1        0.0730
     17 N          62.2154   88.9676   11.6730 N.3     1  UNL1       -0.2726
     18 C          61.5539   89.5459   10.4573 C.3     1  UNL1        0.0721
     19 C          61.3610   88.4388    9.4638 C.3     1  UNL1        0.0190
     20 C          61.9032   87.1763   10.0654 C.3     1  UNL1        0.0201
     21 C          61.5829   86.2946    8.8950 C.3     1  UNL1        0.0061
     22 C          62.2444   85.7163   10.1107 C.3     1  UNL1        0.0237
     23 C          62.4313   87.5031   11.4308 C.3     1  UNL1        0.0724
     24 C          62.8233   84.5395   10.8387 C.ar    1  UNL1       -0.0223
     25 C          63.7498   83.5988   10.1267 C.ar    1  UNL1       -0.0020
     26 C          64.3287   82.4220   10.8548 C.ar    1  UNL1        0.0293
     27 C          63.9812   82.1859   12.2947 C.ar    1  UNL1        0.1401
     28 F          64.5601   81.0092   13.0227 F       1  UNL1       -0.2042
     29 C          63.0547   83.1266   13.0066 C.ar    1  UNL1        0.0293
     30 C          62.4758   84.3034   12.2786 C.ar    1  UNL1       -0.0020
@<TRIPOS>BOND
     1    10    11    1
     2    11    12   ar
     3    12    13   ar
     4    13    14   ar
     5    14    15   ar
     6    15     4    1
     7     4     5   ar
     8     5     6   ar
     9     6     7   ar
    10     7     3    1
    11     3     2    1
    12     2     1    1
    13     1    16    1
    14    16    17    1
    15    17    18    1
    16    18    19    1
    17    20    19    1
    18    20    21    1
    19    21    22    1
    20    22    24    1
    21    24    25   ar
    22    25    26   ar
    23    26    27   ar
    24    27    28    1
    25    27    29   ar
    26    29    30   ar
    27    20    23    1
    28     7     8   ar
    29     8     9    1
    30    15    11   ar
    31     8     4   ar
    32    23    17    1
    33    22    20    1
    34    30    24   ar
@<TRIPOS>MOLECULE
*****
 30 34 0 0 0
SMALL
GASTEIGER

@<TRIPOS>ATOM
      1 C          61.2383   90.2388   10.5253 C.3     1  UNL1        0.0294
      2 C          60.3207   89.6876    9.4745 C.3     1  UNL1        0.0666
      3 S          60.4144   88.2436    9.0795 S.3     1  UNL1       -0.0756
      4 C          62.2047   85.3403   10.9318 C.ar    1  UNL1        0.2029
      5 N          61.5502   86.0548   12.0769 N.ar    1  UNL1       -0.1250
      6 N          60.7999   87.2293   11.5224 N.ar    1  UNL1       -0.1220
      7 C          60.9907   87.2408   10.0346 C.ar    1  UNL1        0.1933
      8 N          61.8589   86.0733    9.6696 N.ar    1  UNL1       -0.2860
      9 C          62.3033   85.7037    8.2854 C.3     1  UNL1        0.1341
     10 C          62.6916   83.5577   13.6216 C.3     1  UNL1        0.0556
     11 C          63.2794   83.2896   12.2678 C.ar    1  UNL1        0.1001
     12 N          64.1942   82.1552   11.9127 N.ar    1  UNL1       -0.2085
     13 C          64.5358   82.2734   10.4569 C.ar    1  UNL1        0.2849
     14 O          63.8321   83.4809    9.9122 O.2     1  UNL1       -0.4283
     15 C          63.0556   84.1090   11.0315 C.ar    1  UNL1        0.1964
     16 C          62.5619   90.8253   10.1326 C.3     1  UNL1        0.0730
     17 N          63.5616   91.1942   11.1883 N.3     1  UNL1       -0.2726
     18 C          64.5343   92.3342   11.1215 C.3     1  UNL1        0.0721
     19 C          65.3380   92.3324   12.3880 C.3     1  UNL1        0.0190
     20 C          64.8621   91.1914   13.2375 C.3     1  UNL1        0.0201
     21 C          65.8065   91.4390   14.3762 C.3     1  UNL1        0.0061
     22 C          64.8339   90.2991   14.4429 C.3     1  UNL1        0.0237
     23 C          63.7642   90.4879   12.4960 C.3     1  UNL1        0.0724
     24 C          64.2561   89.1258   15.1774 C.ar    1  UNL1       -0.0223
     25 C          64.5340   87.7312   14.6999 C.ar    1  UNL1       -0.0020
     26 C          63.9562   86.5579   15.4344 C.ar    1  UNL1        0.0293
     27 C          63.1004   86.7792   16.6463 C.ar    1  UNL1        0.1401
     28 F          62.5226   85.6059   17.3807 F       1  UNL1       -0.2042
     29 C          62.8224   88.1737   17.1237 C.ar    1  UNL1        0.0293
     30 C          63.4003   89.3471   16.3892 C.ar    1  UNL1       -0.0020
@<TRIPOS>BOND
     1    10    11    1
     2    11    12   ar
     3    12    13   ar
     4    13    14   ar
     5    14    15   ar
     6    15     4    1
     7     4     5   ar
     8     5     6   ar
     9     6     7   ar
    10     7     3    1
    11     3     2    1
    12     2     1    1
    13     1    16    1
    14    16    17    1
    15    17    18    1
    16    18    19    1
    17    20    19    1
    18    20    21    1
    19    21    22    1
    20    22    24    1
    21    24    25   ar
    22    25    26   ar
    23    26    27   ar
    24    27    28    1
    25    27    29   ar
    26    29    30   ar
    27    20    23    1
    28     7     8   ar
    29     8     9    1
    30    15    11   ar
    31     8     4   ar
    32    23    17    1
    33    22    20    1
    34    30    24   ar
@<TRIPOS>MOLECULE
*****
 30 34 0 0 0
SMALL
GASTEIGER

@<TRIPOS>ATOM
      1 C          62.9736   85.1687   16.5478 C.3     1  UNL1        0.0294
      2 C          63.6378   86.4820   16.2579 C.3     1  UNL1        0.0666
      3 S          63.1029   87.7437   16.8677 S.3     1  UNL1       -0.0756
      4 C          63.9807   90.7409   14.5628 C.ar    1  UNL1        0.2029
      5 N          63.5184   91.4522   15.7999 N.ar    1  UNL1       -0.1250
      6 N          63.1333   90.4160   16.8139 N.ar    1  UNL1       -0.1220
      7 C          63.3576   89.0643   16.2035 C.ar    1  UNL1        0.1933
      8 N          63.8813   89.2650   14.8123 N.ar    1  UNL1       -0.2860
      9 C          64.2423   88.1804   13.8410 C.3     1  UNL1        0.1341
     10 C          66.5500   92.7333   14.2828 C.3     1  UNL1        0.0556
     11 C          65.6395   92.3069   13.1696 C.ar    1  UNL1        0.1001
     12 N          65.7500   92.7215   11.7323 N.ar    1  UNL1       -0.2085
     13 C          64.6373   92.0620   10.9727 C.ar    1  UNL1        0.2849
     14 O          63.8391   91.2397   11.9406 O.2     1  UNL1       -0.4283
     15 C          64.4585   91.3911   13.2983 C.ar    1  UNL1        0.1964
     16 C          62.0826   84.5358   15.5204 C.3     1  UNL1        0.0730
     17 N          62.6442   84.1246   14.1916 N.3     1  UNL1       -0.2726
     18 C          63.5373   82.9465   13.9384 C.3     1  UNL1        0.0721
     19 C          63.8563   82.9132   12.4731 C.3     1  UNL1        0.0190
     20 C          63.1603   84.0708   11.8207 C.3     1  UNL1        0.0201
     21 C          63.6461   83.7830   10.4311 C.3     1  UNL1        0.0061
     22 C          62.7529   84.9611   10.6843 C.3     1  UNL1        0.0237
     23 C          62.4111   84.8195   12.8829 C.3     1  UNL1        0.0724
     24 C          62.0020   86.1553   10.1745 C.ar    1  UNL1       -0.0223
     25 C          60.9208   85.9800    9.1497 C.ar    1  UNL1       -0.0020
     26 C          60.1699   87.1742    8.6398 C.ar    1  UNL1        0.0293
     27 C          60.5002   88.5438    9.1548 C.ar    1  UNL1        0.1401
     28 F          59.7493   89.7380    8.6449 F       1  UNL1       -0.2042
     29 C          61.5814   88.7191   10.1796 C.ar    1  UNL1        0.0293
     30 C          62.3323   87.5249   10.6894 C.ar    1  UNL1       -0.0020
@<TRIPOS>BOND
     1    10    11    1
     2    11    12   ar
     3    12    13   ar
     4    13    14   ar
     5    14    15   ar
     6    15     4    1
     7     4     5   ar
     8     5     6   ar
     9     6     7   ar
    10     7     3    1
    11     3     2    1
    12     2     1    1
    13     1    16    1
    14    16    17    1
    15    17    18    1
    16    18    19    1
    17    20    19    1
    18    20    21    1
    19    21    22    1
    20    22    24    1
    21    24    25   ar
    22    25    26   ar
    23    26    27   ar
    24    27    28    1
    25    27    29   ar
    26    29    30   ar
    27    20    23    1
    28     7     8   ar
    29     8     9    1
    30    15    11   ar
    31     8     4   ar
    32    23    17    1
    33    22    20    1
    34    30    24   ar
@<TRIPOS>MOLECULE
*****
 30 34 0 0 0
SMALL
GASTEIGER

@<TRIPOS>ATOM
      1 C          64.1118   83.4295   14.2036 C.3     1  UNL1        0.0294
      2 C          63.3019   83.0440   13.0013 C.3     1  UNL1        0.0666
      3 S          63.9292   83.0570   11.6388 S.3     1  UNL1       -0.0756
      4 C          62.3638   85.9255    9.5443 C.ar    1  UNL1        0.2029
      5 N          63.0939   85.1567    8.4831 N.ar    1  UNL1       -0.1250
      6 N          63.7691   83.9886    9.1385 N.ar    1  UNL1       -0.1220
      7 C          63.4564   84.0354   10.6048 C.ar    1  UNL1        0.1933
      8 N          62.5879   85.2324   10.8556 N.ar    1  UNL1       -0.2860
      9 C          62.0396   85.6611   12.1844 C.3     1  UNL1        0.1341
     10 C          59.7004   86.1813    7.6760 C.3     1  UNL1        0.0556
     11 C          60.3280   87.2864    8.4727 C.ar    1  UNL1        0.1001
     12 N          59.8415   88.7032    8.5506 N.ar    1  UNL1       -0.2085
     13 C          60.7651   89.4613    9.4575 C.ar    1  UNL1        0.2849
     14 O          61.8224   88.5130    9.9401 O.2     1  UNL1       -0.4283
     15 C          61.5522   87.1689    9.3315 C.ar    1  UNL1        0.1964
     16 C          64.8123   84.7553   14.2424 C.3     1  UNL1        0.0730
     17 N          64.2641   85.8689   15.0846 N.3     1  UNL1       -0.2726
     18 C          63.6299   85.7221   16.4360 C.3     1  UNL1        0.0721
     19 C          63.2277   87.0873   16.9099 C.3     1  UNL1        0.0190
     20 C          63.6132   88.0777   15.8514 C.3     1  UNL1        0.0201
     21 C          63.1083   89.2887   16.5784 C.3     1  UNL1        0.0061
     22 C          63.7425   89.4354   15.2270 C.3     1  UNL1        0.0237
     23 C          64.2538   87.3247   14.7233 C.3     1  UNL1        0.0724
     24 C          64.1832   90.3040   14.0862 C.ar    1  UNL1       -0.0223
     25 C          63.3841   90.3381   12.8172 C.ar    1  UNL1       -0.0020
     26 C          63.8249   91.2066   11.6765 C.ar    1  UNL1        0.0293
     27 C          65.0647   92.0411   11.8048 C.ar    1  UNL1        0.1401
     28 F          65.5055   92.9097   10.6640 F       1  UNL1       -0.2042
     29 C          65.8638   92.0070   13.0738 C.ar    1  UNL1        0.0293
     30 C          65.4230   91.1385   14.2145 C.ar    1  UNL1       -0.0020
@<TRIPOS>BOND
     1    10    11    1
     2    11    12   ar
     3    12    13   ar
     4    13    14   ar
     5    14    15   ar
     6    15     4    1
     7     4     5   ar
     8     5     6   ar
     9     6     7   ar
    10     7     3    1
    11     3     2    1
    12     2     1    1
    13     1    16    1
    14    16    17    1
    15    17    18    1
    16    18    19    1
    17    20    19    1
    18    20    21    1
    19    21    22    1
    20    22    24    1
    21    24    25   ar
    22    25    26   ar
    23    26    27   ar
    24    27    28    1
    25    27    29   ar
    26    29    30   ar
    27    20    23    1
    28     7     8   ar
    29     8     9    1
    30    15    11   ar
    31     8     4   ar
    32    23    17    1
    33    22    20    1
    34    30    24   ar
