@<TRIPOS>MOLECULE
*****
 35 38 0 0 0
SMALL
GASTEIGER

@<TRIPOS>ATOM
      1 C          63.7001   90.1935   13.3836 C.ar    1  UNL1        0.1042
      2 C          64.6102   91.3837   13.3112 C.ar    1  UNL1        0.0335
      3 C          64.8419   92.0718   11.9987 C.ar    1  UNL1        0.1261
      4 C          64.1636   91.5699   10.7586 C.ar    1  UNL1        0.0234
      5 C          63.2536   90.3797   10.8310 C.ar    1  UNL1        0.0396
      6 C          63.0218   89.6915   12.1435 C.ar    1  UNL1        0.1549
      7 S          65.7520   93.2621   11.9263 S.O2    1  UNL1        0.0751
      8 O          65.7872   93.1442   10.4314 O.2     1  UNL1       -0.1499
      9 O          65.7169   93.3799   13.4212 O.2     1  UNL1       -0.1499
     10 N          66.6621   94.4522   11.8539 N.pl3   1  UNL1       -0.1925
     11 H          67.1783   94.7261   12.6462 H       1  UNL1        0.1758
     12 C          66.7857   95.2251   10.5742 C.ar    1  UNL1        0.1977
     13 N          67.8120   94.9998    9.5038 N.ar    1  UNL1       -0.1997
     14 C          67.5653   95.9945    8.4083 C.ar    1  UNL1        0.2082
     15 N          66.3864   96.8345    8.8019 N.ar    1  UNL1       -0.1840
     16 S          65.9046   96.3590   10.1405 S.2     1  UNL1        0.0508
     17 N          63.2366   88.8172   16.0087 N.1     1  UNL1       -0.1907
     18 C          63.4684   89.5053   14.6961 C.1     1  UNL1        0.1035
     19 O          62.1117   88.5013   12.2159 O.3     1  UNL1       -0.4528
     20 C          61.8700   87.6666   10.9933 C.ar    1  UNL1        0.1467
     21 C          61.2879   88.2927    9.7608 C.ar    1  UNL1        0.0375
     22 C          61.0461   87.4580    8.5382 C.ar    1  UNL1        0.0070
     23 C          61.3864   85.9971    8.5481 C.ar    1  UNL1        0.0717
     24 C          61.9684   85.3710    9.7807 C.ar    1  UNL1        0.0084
     25 C          62.2102   86.2057   11.0032 C.ar    1  UNL1        0.0539
     26 C          62.7923   85.5796   12.2358 C.ar    1  UNL1        0.1058
     27 C          62.7189   84.0938   12.4284 C.ar    1  UNL1        0.0227
     28 C          63.3010   83.4677   13.6610 C.ar    1  UNL1        0.0241
     29 C          63.9564   84.3273   14.7009 C.ar    1  UNL1        0.1222
     30 N          64.0298   85.8131   14.5083 N.ar    1  UNL1       -0.1464
     31 N          63.4478   86.4393   13.2757 N.ar    1  UNL1       -0.1479
     32 C          61.1446   85.1624    7.3255 C.3     1  UNL1        0.4186
     33 F          60.9027   84.3277    6.1029 F       1  UNL1       -0.1659
     34 F          62.5888   84.7574    7.3164 F       1  UNL1       -0.1659
     35 F          59.7004   85.5675    7.3346 F       1  UNL1       -0.1659
@<TRIPOS>BOND
     1    17    18    3
     2    18     1    1
     3     1     2   ar
     4     2     3   ar
     5     3     7    1
     6     7     8    2
     7     7     9    2
     8     7    10    1
     9    10    12    1
    10    12    13   ar
    11    13    14   ar
    12    14    15   ar
    13    15    16   ar
    14     3     4   ar
    15     4     5   ar
    16     5     6   ar
    17     6    19    1
    18    19    20    1
    19    20    21   ar
    20    21    22   ar
    21    22    23   ar
    22    23    32    1
    23    32    33    1
    24    32    34    1
    25    32    35    1
    26    23    24   ar
    27    24    25   ar
    28    25    26    1
    29    26    27   ar
    30    27    28   ar
    31    28    29   ar
    32    29    30   ar
    33    30    31   ar
    34     6     1   ar
    35    25    20   ar
    36    31    26   ar
    37    16    12   ar
    38    10    11    1
@<TRIPOS>MOLECULE
*****
 35 38 0 0 0
SMALL
GASTEIGER

@<TRIPOS>ATOM
      1 C          63.6069   90.2050   13.1451 C.ar    1  UNL1        0.1042
      2 C          64.5986   91.3252   13.0385 C.ar    1  UNL1        0.0335
      3 C          64.8313   91.9978   11.7180 C.ar    1  UNL1        0.1261
      4 C          64.0723   91.5500   10.5043 C.ar    1  UNL1        0.0234
      5 C          63.0805   90.4298   10.6109 C.ar    1  UNL1        0.0396
      6 C          62.8478   89.7573   11.9313 C.ar    1  UNL1        0.1549
      7 S          65.8232   93.1181   11.6115 S.O2    1  UNL1        0.0751
      8 O          65.9680   92.8500   10.1428 O.2     1  UNL1       -0.1499
      9 O          65.6783   93.3861   13.0802 O.2     1  UNL1       -0.1499
     10 N          66.8149   94.2383   11.5048 N.pl3   1  UNL1       -0.1925
     11 H          67.4837   94.3729   12.2146 H       1  UNL1        0.1758
     12 C          66.7878   95.1535   10.3166 C.ar    1  UNL1        0.1977
     13 N          67.8187   95.2169    9.2289 N.ar    1  UNL1       -0.1997
     14 C          67.3930   96.2686    8.2476 C.ar    1  UNL1        0.2082
     15 N          66.0990   96.8551    8.7289 N.ar    1  UNL1       -0.1840
     16 S          65.7249   96.1659   10.0076 S.2     1  UNL1        0.0508
     17 N          63.1414   88.8600   15.7860 N.1     1  UNL1       -0.1907
     18 C          63.3741   89.5325   14.4656 C.1     1  UNL1        0.1035
     19 O          61.8560   88.6370   12.0379 O.3     1  UNL1       -0.4528
     20 C          62.2970   87.2210   11.8134 C.ar    1  UNL1        0.1467
     21 C          63.1741   86.5398   12.8217 C.ar    1  UNL1        0.0375
     22 C          63.6151   85.1237   12.5971 C.ar    1  UNL1        0.0070
     23 C          63.1789   84.3889   11.3643 C.ar    1  UNL1        0.0717
     24 C          62.3018   85.0701   10.3560 C.ar    1  UNL1        0.0084
     25 C          61.8608   86.4861   10.5805 C.ar    1  UNL1        0.0539
     26 C          60.9837   87.1674    9.5723 C.ar    1  UNL1        0.1058
     27 C          60.1519   86.3507    8.6283 C.ar    1  UNL1        0.0227
     28 C          59.2748   87.0319    7.6201 C.ar    1  UNL1        0.0241
     29 C          59.2295   88.5298    7.5557 C.ar    1  UNL1        0.1222
     30 N          60.0613   89.3466    8.4997 N.ar    1  UNL1       -0.1464
     31 N          60.9384   88.6653    9.5080 N.ar    1  UNL1       -0.1479
     32 C          63.6199   82.9729   11.1397 C.3     1  UNL1        0.4186
     33 F          64.0609   81.5569   10.9151 F       1  UNL1       -0.1659
     34 F          63.2102   82.6233   12.5397 F       1  UNL1       -0.1659
     35 F          64.0296   83.3225    9.7398 F       1  UNL1       -0.1659
@<TRIPOS>BOND
     1    17    18    3
     2    18     1    1
     3     1     2   ar
     4     2     3   ar
     5     3     7    1
     6     7     8    2
     7     7     9    2
     8     7    10    1
     9    10    12    1
    10    12    13   ar
    11    13    14   ar
    12    14    15   ar
    13    15    16   ar
    14     3     4   ar
    15     4     5   ar
    16     5     6   ar
    17     6    19    1
    18    19    20    1
    19    20    21   ar
    20    21    22   ar
    21    22    23   ar
    22    23    32    1
    23    32    33    1
    24    32    34    1
    25    32    35    1
    26    23    24   ar
    27    24    25   ar
    28    25    26    1
    29    26    27   ar
    30    27    28   ar
    31    28    29   ar
    32    29    30   ar
    33    30    31   ar
    34     6     1   ar
    35    25    20   ar
    36    31    26   ar
    37    16    12   ar
    38    10    11    1
@<TRIPOS>MOLECULE
*****
 35 38 0 0 0
SMALL
GASTEIGER

@<TRIPOS>ATOM
      1 C          61.9575   88.1908   10.8216 C.ar    1  UNL1        0.1042
      2 C          61.0879   88.7858    9.7540 C.ar    1  UNL1        0.0335
      3 C          60.3226   87.8908    8.8249 C.ar    1  UNL1        0.1261
      4 C          60.4269   86.4009    8.9633 C.ar    1  UNL1        0.0234
      5 C          61.2965   85.8059   10.0309 C.ar    1  UNL1        0.0396
      6 C          62.0618   86.7009   10.9601 C.ar    1  UNL1        0.1549
      7 S          59.4530   88.4858    7.7572 S.O2    1  UNL1        0.0751
      8 O          59.1602   87.1123    7.2303 O.2     1  UNL1       -0.1499
      9 O          59.7458   89.8593    8.2841 O.2     1  UNL1       -0.1499
     10 N          58.5834   89.0807    6.6896 N.pl3   1  UNL1       -0.1925
     11 H          57.6740   88.7324    6.5446 H       1  UNL1        0.1758
     12 C          59.0993   90.2063    5.8428 C.ar    1  UNL1        0.1977
     13 N          60.5166   90.3882    5.3865 N.ar    1  UNL1       -0.1997
     14 C          60.5818   91.6419    4.5654 C.ar    1  UNL1        0.2082
     15 N          59.2048   92.2346    4.5142 N.ar    1  UNL1       -0.1840
     16 S          58.2886   91.3473    5.3037 S.2     1  UNL1        0.0508
     17 N          63.4880   89.9808   12.6800 N.1     1  UNL1       -0.1907
     18 C          62.7228   89.0858   11.7508 C.1     1  UNL1        0.1035
     19 O          62.9314   86.1059   12.0278 O.3     1  UNL1       -0.4528
     20 C          62.8592   84.6368   12.3215 C.ar    1  UNL1        0.1467
     21 C          62.8527   83.6461   11.1952 C.ar    1  UNL1        0.0375
     22 C          62.7805   82.1769   11.4891 C.ar    1  UNL1        0.0070
     23 C          62.7148   81.6984   12.9092 C.ar    1  UNL1        0.0717
     24 C          62.7213   82.6891   14.0355 C.ar    1  UNL1        0.0084
     25 C          62.7935   84.1582   13.7417 C.ar    1  UNL1        0.0539
     26 C          62.8000   85.1489   14.8680 C.ar    1  UNL1        0.1058
     27 C          63.8939   86.1710   14.9615 C.ar    1  UNL1        0.0227
     28 C          63.9004   87.1616   16.0878 C.ar    1  UNL1        0.0241
     29 C          62.8131   87.1302   17.1206 C.ar    1  UNL1        0.1222
     30 N          61.7191   86.1081   17.0271 N.ar    1  UNL1       -0.1464
     31 N          61.7126   85.1174   15.9008 N.ar    1  UNL1       -0.1479
     32 C          62.6426   80.2293   13.2030 C.3     1  UNL1        0.4186
     33 F          62.5705   78.7600   13.4967 F       1  UNL1       -0.1659
     34 F          62.5321   80.5278   14.6688 F       1  UNL1       -0.1659
     35 F          62.7532   79.9307   11.7372 F       1  UNL1       -0.1659
@<TRIPOS>BOND
     1    17    18    3
     2    18     1    1
     3     1     2   ar
     4     2     3   ar
     5     3     7    1
     6     7     8    2
     7     7     9    2
     8     7    10    1
     9    10    12    1
    10    12    13   ar
    11    13    14   ar
    12    14    15   ar
    13    15    16   ar
    14     3     4   ar
    15     4     5   ar
    16     5     6   ar
    17     6    19    1
    18    19    20    1
    19    20    21   ar
    20    21    22   ar
    21    22    23   ar
    22    23    32    1
    23    32    33    1
    24    32    34    1
    25    32    35    1
    26    23    24   ar
    27    24    25   ar
    28    25    26    1
    29    26    27   ar
    30    27    28   ar
    31    28    29   ar
    32    29    30   ar
    33    30    31   ar
    34     6     1   ar
    35    25    20   ar
    36    31    26   ar
    37    16    12   ar
    38    10    11    1
@<TRIPOS>MOLECULE
*****
 35 38 0 0 0
SMALL
GASTEIGER

@<TRIPOS>ATOM
      1 C          61.7221   87.2941   10.5015 C.ar    1  UNL1        0.1042
      2 C          60.9034   87.4522    9.2546 C.ar    1  UNL1        0.0335
      3 C          60.3575   88.7985    8.8815 C.ar    1  UNL1        0.1261
      4 C          60.6302   89.9869    9.7552 C.ar    1  UNL1        0.0234
      5 C          61.4489   89.8288   11.0021 C.ar    1  UNL1        0.0396
      6 C          61.9948   88.4824   11.3752 C.ar    1  UNL1        0.1549
      7 S          59.5388   88.9565    7.6345 S.O2    1  UNL1        0.0751
      8 O          59.6447   87.4824    7.3782 O.2     1  UNL1       -0.1499
      9 O          59.4328   90.4306    7.8908 O.2     1  UNL1       -0.1499
     10 N          58.7201   89.1145    6.3876 N.pl3   1  UNL1       -0.1925
     11 H          58.1083   88.3963    6.1062 H       1  UNL1        0.1758
     12 C          58.8336   90.3666    5.5694 C.ar    1  UNL1        0.1977
     13 N          60.1057   90.9671    5.0486 N.ar    1  UNL1       -0.1997
     14 C          59.7533   92.2097    4.2857 C.ar    1  UNL1        0.2082
     15 N          58.2635   92.3770    4.3351 N.ar    1  UNL1       -0.1840
     16 S          57.6951   91.2379    5.1284 S.2     1  UNL1        0.0508
     17 N          62.8139   84.6014   11.2478 N.1     1  UNL1       -0.1907
     18 C          62.2680   85.9477   10.8747 C.1     1  UNL1        0.1035
     19 O          62.8135   88.3244   12.6222 O.3     1  UNL1       -0.4528
     20 C          63.6795   89.4526   13.0988 C.ar    1  UNL1        0.1467
     21 C          64.0274   90.5761   12.1678 C.ar    1  UNL1        0.0375
     22 C          64.8934   91.7043   12.6444 C.ar    1  UNL1        0.0070
     23 C          65.4115   91.7091   14.0521 C.ar    1  UNL1        0.0717
     24 C          65.0636   90.5856   14.9831 C.ar    1  UNL1        0.0084
     25 C          64.1977   89.4574   14.5065 C.ar    1  UNL1        0.0539
     26 C          63.8498   88.3340   15.4375 C.ar    1  UNL1        0.1058
     27 C          63.1318   88.6202   16.7230 C.ar    1  UNL1        0.0227
     28 C          62.7839   87.4968   17.6541 C.ar    1  UNL1        0.0241
     29 C          63.1540   86.0871   17.2996 C.ar    1  UNL1        0.1222
     30 N          63.8720   85.8007   16.0141 N.ar    1  UNL1       -0.1464
     31 N          64.2199   86.9242   15.0830 N.ar    1  UNL1       -0.1479
     32 C          66.2775   92.8373   14.5287 C.3     1  UNL1        0.4186
     33 F          67.1435   93.9655   15.0053 F       1  UNL1       -0.1659
     34 F          65.9926   93.5906   13.2632 F       1  UNL1       -0.1659
     35 F          66.5624   92.0840   15.7941 F       1  UNL1       -0.1659
@<TRIPOS>BOND
     1    17    18    3
     2    18     1    1
     3     1     2   ar
     4     2     3   ar
     5     3     7    1
     6     7     8    2
     7     7     9    2
     8     7    10    1
     9    10    12    1
    10    12    13   ar
    11    13    14   ar
    12    14    15   ar
    13    15    16   ar
    14     3     4   ar
    15     4     5   ar
    16     5     6   ar
    17     6    19    1
    18    19    20    1
    19    20    21   ar
    20    21    22   ar
    21    22    23   ar
    22    23    32    1
    23    32    33    1
    24    32    34    1
    25    32    35    1
    26    23    24   ar
    27    24    25   ar
    28    25    26    1
    29    26    27   ar
    30    27    28   ar
    31    28    29   ar
    32    29    30   ar
    33    30    31   ar
    34     6     1   ar
    35    25    20   ar
    36    31    26   ar
    37    16    12   ar
    38    10    11    1
@<TRIPOS>MOLECULE
*****
 35 38 0 0 0
SMALL
GASTEIGER

@<TRIPOS>ATOM
      1 C          62.8863   90.2742   10.9773 C.ar    1  UNL1        0.1042
      2 C          63.7988   91.4645   10.9600 C.ar    1  UNL1        0.0335
      3 C          64.7783   91.6749   12.0764 C.ar    1  UNL1        0.1261
      4 C          64.8453   90.6950   13.2100 C.ar    1  UNL1        0.0234
      5 C          63.9328   89.5046   13.2273 C.ar    1  UNL1        0.0396
      6 C          62.9533   89.2942   12.1109 C.ar    1  UNL1        0.1549
      7 S          65.6908   92.8654   12.0591 S.O2    1  UNL1        0.0751
      8 O          65.4700   93.0559   13.5304 O.2     1  UNL1       -0.1499
      9 O          65.9116   92.6748   10.5878 O.2     1  UNL1       -0.1499
     10 N          66.6033   94.0557   12.0419 N.pl3   1  UNL1       -0.1925
     11 H          67.1778   94.2469   12.8182 H       1  UNL1        0.1758
     12 C          66.6405   94.9549   10.8418 C.ar    1  UNL1        0.1977
     13 N          67.6751   94.9335    9.7559 N.ar    1  UNL1       -0.1997
     14 C          67.3237   95.9987    8.7599 C.ar    1  UNL1        0.2082
     15 N          66.0720   96.6784    9.2303 N.ar    1  UNL1       -0.1840
     16 S          65.6498   96.0333   10.5170 S.2     1  UNL1        0.0508
     17 N          60.9273   89.8534    8.7445 N.1     1  UNL1       -0.1907
     18 C          61.9068   90.0638    9.8609 C.1     1  UNL1        0.1035
     19 O          62.0407   88.1038   12.1282 O.3     1  UNL1       -0.4528
     20 C          62.6110   86.7237   12.2694 C.ar    1  UNL1        0.1467
     21 C          63.4711   86.3848   13.4507 C.ar    1  UNL1        0.0375
     22 C          64.0413   85.0046   13.5919 C.ar    1  UNL1        0.0070
     23 C          63.7515   83.9633   12.5519 C.ar    1  UNL1        0.0717
     24 C          62.8914   84.3022   11.3706 C.ar    1  UNL1        0.0084
     25 C          62.3211   85.6823   11.2294 C.ar    1  UNL1        0.0539
     26 C          61.4610   86.0212   10.0481 C.ar    1  UNL1        0.1058
     27 C          61.8655   85.5768    8.6737 C.ar    1  UNL1        0.0227
     28 C          61.0054   85.9157    7.4925 C.ar    1  UNL1        0.0241
     29 C          59.7408   86.6989    7.6856 C.ar    1  UNL1        0.1222
     30 N          59.3363   87.1433    9.0600 N.ar    1  UNL1       -0.1464
     31 N          60.1964   86.8044   10.2412 N.ar    1  UNL1       -0.1479
     32 C          64.3217   82.5832   12.6931 C.3     1  UNL1        0.4186
     33 F          64.8920   81.2030   12.8345 F       1  UNL1       -0.1659
     34 F          64.7143   82.5972   11.2455 F       1  UNL1       -0.1659
     35 F          63.9291   82.5691   14.1408 F       1  UNL1       -0.1659
@<TRIPOS>BOND
     1    17    18    3
     2    18     1    1
     3     1     2   ar
     4     2     3   ar
     5     3     7    1
     6     7     8    2
     7     7     9    2
     8     7    10    1
     9    10    12    1
    10    12    13   ar
    11    13    14   ar
    12    14    15   ar
    13    15    16   ar
    14     3     4   ar
    15     4     5   ar
    16     5     6   ar
    17     6    19    1
    18    19    20    1
    19    20    21   ar
    20    21    22   ar
    21    22    23   ar
    22    23    32    1
    23    32    33    1
    24    32    34    1
    25    32    35    1
    26    23    24   ar
    27    24    25   ar
    28    25    26    1
    29    26    27   ar
    30    27    28   ar
    31    28    29   ar
    32    29    30   ar
    33    30    31   ar
    34     6     1   ar
    35    25    20   ar
    36    31    26   ar
    37    16    12   ar
    38    10    11    1
@<TRIPOS>MOLECULE
*****
 35 38 0 0 0
SMALL
GASTEIGER

@<TRIPOS>ATOM
      1 C          62.3966   89.6522   11.0177 C.ar    1  UNL1        0.1042
      2 C          63.2091   90.9110   10.9447 C.ar    1  UNL1        0.0335
      3 C          64.1893   91.2351   12.0328 C.ar    1  UNL1        0.1261
      4 C          64.3571   90.3005   13.1940 C.ar    1  UNL1        0.0234
      5 C          63.5447   89.0417   13.2670 C.ar    1  UNL1        0.0396
      6 C          62.5644   88.7176   12.1788 C.ar    1  UNL1        0.1549
      7 S          65.0018   92.4939   11.9598 S.O2    1  UNL1        0.0751
      8 O          65.2959   92.3892   13.4269 O.2     1  UNL1       -0.1499
      9 O          64.7078   92.5986   10.4927 O.2     1  UNL1       -0.1499
     10 N          65.8143   93.7527   11.8868 N.pl3   1  UNL1       -0.1925
     11 H          65.7529   94.4207   12.6074 H       1  UNL1        0.1758
     12 C          66.7203   93.9938   10.7158 C.ar    1  UNL1        0.1977
     13 N          67.7923   93.0665   10.2250 N.ar    1  UNL1       -0.1997
     14 C          68.4479   93.7041    9.0359 C.ar    1  UNL1        0.2082
     15 N          67.7809   95.0254    8.7919 N.ar    1  UNL1       -0.1840
     16 S          66.7132   95.2044    9.8301 S.2     1  UNL1        0.0508
     17 N          60.4361   89.0040    8.8415 N.1     1  UNL1       -0.1907
     18 C          61.4163   89.3281    9.9296 C.1     1  UNL1        0.1035
     19 O          61.7519   87.4588   12.2519 O.3     1  UNL1       -0.4528
     20 C          62.3145   86.1714   11.7263 C.ar    1  UNL1        0.1467
     21 C          62.2979   85.8919   10.2527 C.ar    1  UNL1        0.0375
     22 C          62.8606   84.6045    9.7272 C.ar    1  UNL1        0.0070
     23 C          63.4397   83.5967   10.6752 C.ar    1  UNL1        0.0717
     24 C          63.4563   83.8762   12.1489 C.ar    1  UNL1        0.0084
     25 C          62.8937   85.1636   12.6744 C.ar    1  UNL1        0.0539
     26 C          62.9102   85.4431   14.1481 C.ar    1  UNL1        0.1058
     27 C          64.0353   86.2322   14.7491 C.ar    1  UNL1        0.0227
     28 C          64.0519   86.5118   16.2228 C.ar    1  UNL1        0.0241
     29 C          62.9434   86.0021   17.0953 C.ar    1  UNL1        0.1222
     30 N          61.8182   85.2129   16.4942 N.ar    1  UNL1       -0.1464
     31 N          61.8016   84.9334   15.0206 N.ar    1  UNL1       -0.1479
     32 C          64.0023   82.3094   10.1497 C.3     1  UNL1        0.4186
     33 F          64.5650   81.0220    9.6240 F       1  UNL1       -0.1659
     34 F          63.1153   81.5405   11.0835 F       1  UNL1       -0.1659
     35 F          64.8893   83.0783    9.2159 F       1  UNL1       -0.1659
@<TRIPOS>BOND
     1    17    18    3
     2    18     1    1
     3     1     2   ar
     4     2     3   ar
     5     3     7    1
     6     7     8    2
     7     7     9    2
     8     7    10    1
     9    10    12    1
    10    12    13   ar
    11    13    14   ar
    12    14    15   ar
    13    15    16   ar
    14     3     4   ar
    15     4     5   ar
    16     5     6   ar
    17     6    19    1
    18    19    20    1
    19    20    21   ar
    20    21    22   ar
    21    22    23   ar
    22    23    32    1
    23    32    33    1
    24    32    34    1
    25    32    35    1
    26    23    24   ar
    27    24    25   ar
    28    25    26    1
    29    26    27   ar
    30    27    28   ar
    31    28    29   ar
    32    29    30   ar
    33    30    31   ar
    34     6     1   ar
    35    25    20   ar
    36    31    26   ar
    37    16    12   ar
    38    10    11    1
@<TRIPOS>MOLECULE
*****
 35 38 0 0 0
SMALL
GASTEIGER

@<TRIPOS>ATOM
      1 C          64.0134   87.9807   14.0310 C.ar    1  UNL1        0.1042
      2 C          64.6776   89.2838   14.3635 C.ar    1  UNL1        0.0335
      3 C          64.5460   90.4519   13.4317 C.ar    1  UNL1        0.1261
      4 C          63.7502   90.3169   12.1675 C.ar    1  UNL1        0.0234
      5 C          63.0860   89.0138   11.8350 C.ar    1  UNL1        0.0396
      6 C          63.2176   87.8457   12.7667 C.ar    1  UNL1        0.1549
      7 S          65.2103   91.7551   13.7643 S.O2    1  UNL1        0.0751
      8 O          65.7530   91.8347   12.3682 O.2     1  UNL1       -0.1499
      9 O          64.6677   91.6755   15.1604 O.2     1  UNL1       -0.1499
     10 N          65.8746   93.0582   14.0968 N.pl3   1  UNL1       -0.1925
     11 H          65.4778   93.9054   13.7899 H       1  UNL1        0.1758
     12 C          67.1434   93.0707   14.8969 C.ar    1  UNL1        0.1977
     13 N          67.8388   94.2890   15.4280 N.ar    1  UNL1       -0.1997
     14 C          69.0647   93.8383   16.1657 C.ar    1  UNL1        0.2082
     15 N          69.1268   92.3414   16.0904 N.ar    1  UNL1       -0.1840
     16 S          67.9394   91.8670   15.3063 S.2     1  UNL1        0.0508
     17 N          64.2765   85.6445   15.8945 N.1     1  UNL1       -0.1907
     18 C          64.1449   86.8126   14.9628 C.1     1  UNL1        0.1035
     19 O          62.5533   86.5425   12.4342 O.3     1  UNL1       -0.4528
     20 C          62.3921   86.1268   11.0020 C.ar    1  UNL1        0.1467
     21 C          63.1823   84.9714   10.4629 C.ar    1  UNL1        0.0375
     22 C          63.0211   84.5557    9.0307 C.ar    1  UNL1        0.0070
     23 C          62.0699   85.2955    8.1375 C.ar    1  UNL1        0.0717
     24 C          61.2797   86.4510    8.6766 C.ar    1  UNL1        0.0084
     25 C          61.4408   86.8666   10.1087 C.ar    1  UNL1        0.0539
     26 C          60.6507   88.0221   10.6478 C.ar    1  UNL1        0.1058
     27 C          60.6421   89.3313    9.9158 C.ar    1  UNL1        0.0227
     28 C          59.8520   90.4868   10.4549 C.ar    1  UNL1        0.0241
     29 C          59.0704   90.3330   11.7259 C.ar    1  UNL1        0.1222
     30 N          59.0790   89.0238   12.4579 N.ar    1  UNL1       -0.1464
     31 N          59.8691   87.8683   11.9189 N.ar    1  UNL1       -0.1479
     32 C          61.9087   84.8798    6.7053 C.3     1  UNL1        0.4186
     33 F          61.7475   84.4641    5.2731 F       1  UNL1       -0.1659
     34 F          63.3964   84.7342    6.5802 F       1  UNL1       -0.1659
     35 F          60.4211   85.0254    6.8304 F       1  UNL1       -0.1659
@<TRIPOS>BOND
     1    17    18    3
     2    18     1    1
     3     1     2   ar
     4     2     3   ar
     5     3     7    1
     6     7     8    2
     7     7     9    2
     8     7    10    1
     9    10    12    1
    10    12    13   ar
    11    13    14   ar
    12    14    15   ar
    13    15    16   ar
    14     3     4   ar
    15     4     5   ar
    16     5     6   ar
    17     6    19    1
    18    19    20    1
    19    20    21   ar
    20    21    22   ar
    21    22    23   ar
    22    23    32    1
    23    32    33    1
    24    32    34    1
    25    32    35    1
    26    23    24   ar
    27    24    25   ar
    28    25    26    1
    29    26    27   ar
    30    27    28   ar
    31    28    29   ar
    32    29    30   ar
    33    30    31   ar
    34     6     1   ar
    35    25    20   ar
    36    31    26   ar
    37    16    12   ar
    38    10    11    1
@<TRIPOS>MOLECULE
*****
 35 38 0 0 0
SMALL
GASTEIGER

@<TRIPOS>ATOM
      1 C          62.0334   90.0757   11.5331 C.ar    1  UNL1        0.1042
      2 C          62.9648   91.2102   11.8421 C.ar    1  UNL1        0.0335
      3 C          64.1758   90.9752   12.6955 C.ar    1  UNL1        0.1261
      4 C          64.4554   89.6057   13.2398 C.ar    1  UNL1        0.0234
      5 C          63.5241   88.4713   12.9307 C.ar    1  UNL1        0.0396
      6 C          62.3131   88.7063   12.0773 C.ar    1  UNL1        0.1549
      7 S          65.1071   92.1097   13.0046 S.O2    1  UNL1        0.0751
      8 O          65.3995   92.2681   11.5420 O.2     1  UNL1       -0.1499
      9 O          64.8147   91.9514   14.4673 O.2     1  UNL1       -0.1499
     10 N          66.0384   93.2442   13.3136 N.pl3   1  UNL1       -0.1925
     11 H          65.8424   94.1479   12.9758 H       1  UNL1        0.1758
     12 C          67.2684   93.0018   14.1373 C.ar    1  UNL1        0.1977
     13 N          68.4575   92.1848   13.7267 N.ar    1  UNL1       -0.1997
     14 C          69.4493   92.2119   14.8519 C.ar    1  UNL1        0.2082
     15 N          68.8730   93.0456   15.9578 N.ar    1  UNL1       -0.1840
     16 S          67.5252   93.5338   15.5161 S.2     1  UNL1        0.0508
     17 N          59.6114   90.5458    9.8263 N.1     1  UNL1       -0.1907
     18 C          60.8224   90.3107   10.6797 C.1     1  UNL1        0.1035
     19 O          61.3818   87.5717   11.7682 O.3     1  UNL1       -0.4528
     20 C          61.4976   86.8404   10.4637 C.ar    1  UNL1        0.1467
     21 C          60.9219   87.4391    9.2147 C.ar    1  UNL1        0.0375
     22 C          61.0377   86.7077    7.9101 C.ar    1  UNL1        0.0070
     23 C          61.7292   85.3778    7.8547 C.ar    1  UNL1        0.0717
     24 C          62.3049   84.7791    9.1038 C.ar    1  UNL1        0.0084
     25 C          62.1891   85.5104   10.4083 C.ar    1  UNL1        0.0539
     26 C          62.7647   84.9118   11.6574 C.ar    1  UNL1        0.1058
     27 C          63.9011   83.9368   11.5671 C.ar    1  UNL1        0.0227
     28 C          64.4767   83.3382   12.8162 C.ar    1  UNL1        0.0241
     29 C          63.9161   83.7145   14.1556 C.ar    1  UNL1        0.1222
     30 N          62.7797   84.6895   14.2459 N.ar    1  UNL1       -0.1464
     31 N          62.2040   85.2881   12.9968 N.ar    1  UNL1       -0.1479
     32 C          61.8450   84.6465    6.5502 C.3     1  UNL1        0.4186
     33 F          61.9609   83.9152    5.2456 F       1  UNL1       -0.1659
     34 F          60.3495   84.5981    6.4446 F       1  UNL1       -0.1659
     35 F          63.3405   84.6949    6.6558 F       1  UNL1       -0.1659
@<TRIPOS>BOND
     1    17    18    3
     2    18     1    1
     3     1     2   ar
     4     2     3   ar
     5     3     7    1
     6     7     8    2
     7     7     9    2
     8     7    10    1
     9    10    12    1
    10    12    13   ar
    11    13    14   ar
    12    14    15   ar
    13    15    16   ar
    14     3     4   ar
    15     4     5   ar
    16     5     6   ar
    17     6    19    1
    18    19    20    1
    19    20    21   ar
    20    21    22   ar
    21    22    23   ar
    22    23    32    1
    23    32    33    1
    24    32    34    1
    25    32    35    1
    26    23    24   ar
    27    24    25   ar
    28    25    26    1
    29    26    27   ar
    30    27    28   ar
    31    28    29   ar
    32    29    30   ar
    33    30    31   ar
    34     6     1   ar
    35    25    20   ar
    36    31    26   ar
    37    16    12   ar
    38    10    11    1
@<TRIPOS>MOLECULE
*****
 35 38 0 0 0
SMALL
GASTEIGER

@<TRIPOS>ATOM
      1 C          64.2200   88.8102   14.1048 C.ar    1  UNL1        0.1042
      2 C          64.9511   89.9962   14.6605 C.ar    1  UNL1        0.0335
      3 C          64.9155   91.3076   13.9331 C.ar    1  UNL1        0.1261
      4 C          64.1488   91.4329   12.6500 C.ar    1  UNL1        0.0234
      5 C          63.4178   90.2469   12.0942 C.ar    1  UNL1        0.0396
      6 C          63.4534   88.9355   12.8216 C.ar    1  UNL1        0.1549
      7 S          65.6466   92.4936   14.4890 S.O2    1  UNL1        0.0751
      8 O          66.3109   92.7064   13.1611 O.2     1  UNL1       -0.1499
      9 O          64.9823   92.2808   15.8169 O.2     1  UNL1       -0.1499
     10 N          66.3777   93.6796   15.0447 N.pl3   1  UNL1       -0.1925
     11 H          65.9398   94.5610   15.0683 H       1  UNL1        0.1758
     12 C          67.7760   93.5226   15.5645 C.ar    1  UNL1        0.1977
     13 N          68.7152   94.6373   15.9186 N.ar    1  UNL1       -0.1997
     14 C          70.0003   94.0271   16.3944 C.ar    1  UNL1        0.2082
     15 N          69.8552   92.5353   16.3343 N.ar    1  UNL1       -0.1840
     16 S          68.4805   92.2236   15.8214 S.2     1  UNL1        0.0508
     17 N          64.2912   86.1875   15.5596 N.1     1  UNL1       -0.1907
     18 C          64.2556   87.4989   14.8322 C.1     1  UNL1        0.1035
     19 O          62.7223   87.7495   12.2658 O.3     1  UNL1       -0.4528
     20 C          61.8614   87.9027   11.0471 C.ar    1  UNL1        0.1467
     21 C          61.1768   89.2087   10.7718 C.ar    1  UNL1        0.0375
     22 C          60.3159   89.3619    9.5529 C.ar    1  UNL1        0.0070
     23 C          60.1396   88.2092    8.6095 C.ar    1  UNL1        0.0717
     24 C          60.8242   86.9032    8.8848 C.ar    1  UNL1        0.0084
     25 C          61.6851   86.7500   10.1036 C.ar    1  UNL1        0.0539
     26 C          62.3697   85.4440   10.3789 C.ar    1  UNL1        0.1058
     27 C          63.2302   84.8116    9.3255 C.ar    1  UNL1        0.0227
     28 C          63.9148   83.5057    9.6008 C.ar    1  UNL1        0.0241
     29 C          63.7389   82.8321   10.9295 C.ar    1  UNL1        0.1222
     30 N          62.8783   83.4645   11.9829 N.ar    1  UNL1       -0.1464
     31 N          62.1937   84.7705   11.7076 N.ar    1  UNL1       -0.1479
     32 C          59.2788   88.3624    7.3908 C.3     1  UNL1        0.4186
     33 F          58.4179   88.5157    6.1719 F       1  UNL1       -0.1659
     34 F          58.7055   86.9961    7.6239 F       1  UNL1       -0.1659
     35 F          59.8520   89.7288    7.1576 F       1  UNL1       -0.1659
@<TRIPOS>BOND
     1    17    18    3
     2    18     1    1
     3     1     2   ar
     4     2     3   ar
     5     3     7    1
     6     7     8    2
     7     7     9    2
     8     7    10    1
     9    10    12    1
    10    12    13   ar
    11    13    14   ar
    12    14    15   ar
    13    15    16   ar
    14     3     4   ar
    15     4     5   ar
    16     5     6   ar
    17     6    19    1
    18    19    20    1
    19    20    21   ar
    20    21    22   ar
    21    22    23   ar
    22    23    32    1
    23    32    33    1
    24    32    34    1
    25    32    35    1
    26    23    24   ar
    27    24    25   ar
    28    25    26    1
    29    26    27   ar
    30    27    28   ar
    31    28    29   ar
    32    29    30   ar
    33    30    31   ar
    34     6     1   ar
    35    25    20   ar
    36    31    26   ar
    37    16    12   ar
    38    10    11    1
