@<TRIPOS>MOLECULE
*****
 30 33 0 0 0
SMALL
GASTEIGER

@<TRIPOS>ATOM
      1 C          63.6557   86.2405   15.7082 C.ar    1  UNL1        0.2172
      2 N          64.3351   86.9812   14.5948 N.ar    1  UNL1       -0.2126
      3 C          64.3895   88.4800   14.6149 C.ar    1  UNL1        0.0994
      4 C          63.7645   89.2382   15.7483 C.ar    1  UNL1        0.0207
      5 C          63.0851   88.4974   16.8617 C.ar    1  UNL1        0.0994
      6 N          63.0307   86.9986   16.8417 N.ar    1  UNL1       -0.2126
      7 N          63.6012   84.7416   15.6882 N.pl3   1  UNL1       -0.2989
      8 H          64.3611   84.2169   16.0295 H       1  UNL1        0.1500
      9 C          62.3891   84.0421   15.1483 C.3     1  UNL1        0.1212
     10 C          62.9209   83.5450   12.6543 C.ar    1  UNL1        0.2225
     11 N          63.0600   82.5668   11.5257 N.ar    1  UNL1       -0.2080
     12 C          62.8062   81.1075   11.7625 C.ar    1  UNL1        0.1316
     13 C          62.4134   80.6265   13.1279 C.ar    1  UNL1        0.1592
     14 F          62.1597   79.1671   13.3646 F       1  UNL1       -0.2025
     15 C          62.2744   81.6047   14.2565 C.ar    1  UNL1        0.0333
     16 C          62.5281   83.0640   14.0197 C.ar    1  UNL1        0.0529
     17 C          62.2360   85.7993   11.5591 C.3     1  UNL1        0.2542
     18 O          63.1747   85.0043   12.4175 O.3     1  UNL1       -0.4563
     19 C          63.8189   90.7371   15.7683 C.3     1  UNL1        0.0575
     20 C          64.8751   91.4598   14.9858 C.ar    1  UNL1        0.0044
     21 C          66.1262   92.0684   15.5464 C.ar    1  UNL1        0.0966
     22 N          66.8899   92.6854   14.4123 N.ar    1  UNL1       -0.2273
     23 C          66.1107   92.4582   13.1508 C.ar    1  UNL1        0.1403
     24 N          66.3742   92.8431   11.7253 N.ar    1  UNL1       -0.3367
     25 C          65.3925   92.4706   10.6541 C.ar    1  UNL1        0.0850
     26 C          64.1473   91.7131   11.0085 C.ar    1  UNL1        0.0747
     27 CL         63.1655   91.3406    9.9373 Cl      1  UNL1       -0.0807
     28 C          63.8838   91.3281   12.4341 C.ar    1  UNL1        0.0156
     29 C          64.8655   91.7007   13.5053 C.ar    1  UNL1        0.0327
     30 H          67.1915   93.3403   11.4926 H       1  UNL1        0.1674
@<TRIPOS>BOND
     1    17    18    1
     2    18    10    1
     3    10    11   ar
     4    11    12   ar
     5    12    13   ar
     6    13    14    1
     7    13    15   ar
     8    15    16   ar
     9    16     9    1
    10     9     7    1
    11     7     1    1
    12     1     2   ar
    13     2     3   ar
    14     3     4   ar
    15     4    19    1
    16    19    20    1
    17    20    21   ar
    18    21    22   ar
    19    22    23   ar
    20    23    24   ar
    21    24    25   ar
    22    25    26   ar
    23    26    27    1
    24    26    28   ar
    25    28    29   ar
    26     4     5   ar
    27     5     6   ar
    28    16    10   ar
    29     6     1   ar
    30    29    20   ar
    31    29    23    1
    32     7     8    1
    33    24    30    1
@<TRIPOS>MOLECULE
*****
 30 33 0 0 0
SMALL
GASTEIGER

@<TRIPOS>ATOM
      1 C          62.3520   87.3346   11.5522 C.ar    1  UNL1        0.2172
      2 N          63.1144   88.0058   12.6560 N.ar    1  UNL1       -0.2126
      3 C          63.5355   89.4383   12.5132 C.ar    1  UNL1        0.0994
      4 C          63.1942   90.1997   11.2667 C.ar    1  UNL1        0.0207
      5 C          62.4318   89.5286   10.1629 C.ar    1  UNL1        0.0994
      6 N          62.0107   88.0960   10.3057 N.ar    1  UNL1       -0.2126
      7 N          61.9309   85.9020   11.6949 N.pl3   1  UNL1       -0.2989
      8 H          60.9891   85.6818   11.8787 H       1  UNL1        0.1500
      9 C          62.9447   84.8050   11.5578 C.3     1  UNL1        0.1212
     10 C          62.7289   83.6657   13.8827 C.ar    1  UNL1        0.2225
     11 N          62.6067   82.4232   14.7141 N.ar    1  UNL1       -0.2080
     12 C          62.5778   81.0776   14.0520 C.ar    1  UNL1        0.1316
     13 C          62.6712   80.9744   12.5585 C.ar    1  UNL1        0.1592
     14 F          62.6423   79.6287   11.8964 F       1  UNL1       -0.2025
     15 C          62.7935   82.2169   11.7271 C.ar    1  UNL1        0.0333
     16 C          62.8224   83.5625   12.3892 C.ar    1  UNL1        0.0529
     17 C          64.0398   85.5375   15.1189 C.3     1  UNL1        0.2542
     18 O          62.7578   85.0113   14.5449 O.3     1  UNL1       -0.4563
     19 C          63.6154   91.6324   11.1240 C.3     1  UNL1        0.0575
     20 C          65.0114   92.0435   11.4874 C.ar    1  UNL1        0.0044
     21 C          66.1219   92.3413   10.5240 C.ar    1  UNL1        0.0966
     22 N          67.3388   92.7108   11.3194 N.ar    1  UNL1       -0.2273
     23 C          66.9804   92.6415   12.7743 C.ar    1  UNL1        0.1403
     24 N          67.7780   92.9006   14.0179 N.ar    1  UNL1       -0.3367
     25 C          67.1372   92.7473   15.3654 C.ar    1  UNL1        0.0850
     26 C          65.6987   92.3349   15.4693 C.ar    1  UNL1        0.0747
     27 CL         65.0579   92.1816   16.8169 Cl      1  UNL1       -0.0807
     28 C          64.9011   92.0758   14.2257 C.ar    1  UNL1        0.0156
     29 C          65.5420   92.2291   12.8782 C.ar    1  UNL1        0.0327
     30 H          68.7221   93.1713   13.9497 H       1  UNL1        0.1674
@<TRIPOS>BOND
     1    17    18    1
     2    18    10    1
     3    10    11   ar
     4    11    12   ar
     5    12    13   ar
     6    13    14    1
     7    13    15   ar
     8    15    16   ar
     9    16     9    1
    10     9     7    1
    11     7     1    1
    12     1     2   ar
    13     2     3   ar
    14     3     4   ar
    15     4    19    1
    16    19    20    1
    17    20    21   ar
    18    21    22   ar
    19    22    23   ar
    20    23    24   ar
    21    24    25   ar
    22    25    26   ar
    23    26    27    1
    24    26    28   ar
    25    28    29   ar
    26     4     5   ar
    27     5     6   ar
    28    16    10   ar
    29     6     1   ar
    30    29    20   ar
    31    29    23    1
    32     7     8    1
    33    24    30    1
@<TRIPOS>MOLECULE
*****
 30 33 0 0 0
SMALL
GASTEIGER

@<TRIPOS>ATOM
      1 C          61.8386   89.2155   11.4500 C.ar    1  UNL1        0.2172
      2 N          62.7873   89.5642   12.5584 N.ar    1  UNL1       -0.2126
      3 C          63.7549   90.6976   12.3885 C.ar    1  UNL1        0.0994
      4 C          63.7739   91.4825   11.1104 C.ar    1  UNL1        0.0207
      5 C          62.8253   91.1338   10.0020 C.ar    1  UNL1        0.0994
      6 N          61.8576   90.0004   10.1719 N.ar    1  UNL1       -0.2126
      7 N          60.8709   88.0821   11.6198 N.pl3   1  UNL1       -0.2989
      8 H          60.4532   87.9186   12.4961 H       1  UNL1        0.1500
      9 C          60.5397   87.1976   10.4544 C.3     1  UNL1        0.1212
     10 C          62.3305   85.3880   10.9722 C.ar    1  UNL1        0.2225
     11 N          63.3248   84.3707   10.4962 N.ar    1  UNL1       -0.2080
     12 C          63.5226   84.1460    9.0264 C.ar    1  UNL1        0.1316
     13 C          62.7261   84.9384    8.0326 C.ar    1  UNL1        0.1592
     14 F          62.9240   84.7136    6.5628 F       1  UNL1       -0.2025
     15 C          61.7318   85.9556    8.5086 C.ar    1  UNL1        0.0333
     16 C          61.5340   86.1804    9.9785 C.ar    1  UNL1        0.0529
     17 C          62.6199   84.5937   13.4289 C.3     1  UNL1        0.2542
     18 O          62.1327   85.6127   12.4421 O.3     1  UNL1       -0.4563
     19 C          64.7417   92.6160   10.9406 C.3     1  UNL1        0.0575
     20 C          66.1918   92.4198   11.2701 C.ar    1  UNL1        0.0044
     21 C          67.3007   92.2141   10.2812 C.ar    1  UNL1        0.0966
     22 N          68.5819   92.0621   11.0464 N.ar    1  UNL1       -0.2273
     23 C          68.2648   92.1739   12.5082 C.ar    1  UNL1        0.1403
     24 N          69.1302   92.1029   13.7313 N.ar    1  UNL1       -0.3367
     25 C          68.5186   92.2530   15.0926 C.ar    1  UNL1        0.0850
     26 C          67.0414   92.4741   15.2309 C.ar    1  UNL1        0.0747
     27 CL         66.4297   92.6242   16.5923 Cl      1  UNL1       -0.0807
     28 C          66.1759   92.5451   14.0078 C.ar    1  UNL1        0.0156
     29 C          66.7876   92.3950   12.6465 C.ar    1  UNL1        0.0327
     30 H          70.0998   91.9578   13.6405 H       1  UNL1        0.1674
@<TRIPOS>BOND
     1    17    18    1
     2    18    10    1
     3    10    11   ar
     4    11    12   ar
     5    12    13   ar
     6    13    14    1
     7    13    15   ar
     8    15    16   ar
     9    16     9    1
    10     9     7    1
    11     7     1    1
    12     1     2   ar
    13     2     3   ar
    14     3     4   ar
    15     4    19    1
    16    19    20    1
    17    20    21   ar
    18    21    22   ar
    19    22    23   ar
    20    23    24   ar
    21    24    25   ar
    22    25    26   ar
    23    26    27    1
    24    26    28   ar
    25    28    29   ar
    26     4     5   ar
    27     5     6   ar
    28    16    10   ar
    29     6     1   ar
    30    29    20   ar
    31    29    23    1
    32     7     8    1
    33    24    30    1
@<TRIPOS>MOLECULE
*****
 30 33 0 0 0
SMALL
GASTEIGER

@<TRIPOS>ATOM
      1 C          61.8659   89.2462   11.4940 C.ar    1  UNL1        0.2172
      2 N          62.6999   89.7073   12.6524 N.ar    1  UNL1       -0.2126
      3 C          63.6739   90.8340   12.4736 C.ar    1  UNL1        0.0994
      4 C          63.8140   91.4994   11.1367 C.ar    1  UNL1        0.0207
      5 C          62.9800   91.0383    9.9783 C.ar    1  UNL1        0.0994
      6 N          62.0059   89.9117   10.1570 N.ar    1  UNL1       -0.2126
      7 N          60.8918   88.1196   11.6726 N.pl3   1  UNL1       -0.2989
      8 H          60.7201   87.7552   12.5709 H       1  UNL1        0.1500
      9 C          60.1795   87.5481   10.4826 C.3     1  UNL1        0.1212
     10 C          60.4270   86.5020    8.1174 C.ar    1  UNL1        0.2225
     11 N          61.1601   85.6062    7.1635 N.ar    1  UNL1       -0.2080
     12 C          62.3786   84.8605    7.6208 C.ar    1  UNL1        0.1316
     13 C          62.8641   85.0107    9.0321 C.ar    1  UNL1        0.1592
     14 F          64.0826   84.2650    9.4894 F       1  UNL1       -0.2025
     15 C          62.1310   85.9066    9.9860 C.ar    1  UNL1        0.0333
     16 C          60.9125   86.6523    9.5287 C.ar    1  UNL1        0.0529
     17 C          59.3196   88.6858    7.2486 C.3     1  UNL1        0.2542
     18 O          59.2085   87.2477    7.6600 O.3     1  UNL1       -0.4563
     19 C          64.7881   92.6261   10.9580 C.3     1  UNL1        0.0575
     20 C          66.2377   92.4234   11.2859 C.ar    1  UNL1        0.0044
     21 C          67.3435   92.2055   10.2961 C.ar    1  UNL1        0.0966
     22 N          68.6252   92.0504   11.0597 N.ar    1  UNL1       -0.2273
     23 C          68.3115   92.1723   12.5215 C.ar    1  UNL1        0.1403
     24 N          69.1789   92.1032   13.7433 N.ar    1  UNL1       -0.3367
     25 C          68.5707   92.2647   15.1049 C.ar    1  UNL1        0.0850
     26 C          67.0952   92.4952   15.2447 C.ar    1  UNL1        0.0747
     27 CL         66.4870   92.6566   16.6064 Cl      1  UNL1       -0.0807
     28 C          66.2278   92.5643   14.0229 C.ar    1  UNL1        0.0156
     29 C          66.8360   92.4028   12.6613 C.ar    1  UNL1        0.0327
     30 H          70.1474   91.9519   13.6516 H       1  UNL1        0.1674
@<TRIPOS>BOND
     1    17    18    1
     2    18    10    1
     3    10    11   ar
     4    11    12   ar
     5    12    13   ar
     6    13    14    1
     7    13    15   ar
     8    15    16   ar
     9    16     9    1
    10     9     7    1
    11     7     1    1
    12     1     2   ar
    13     2     3   ar
    14     3     4   ar
    15     4    19    1
    16    19    20    1
    17    20    21   ar
    18    21    22   ar
    19    22    23   ar
    20    23    24   ar
    21    24    25   ar
    22    25    26   ar
    23    26    27    1
    24    26    28   ar
    25    28    29   ar
    26     4     5   ar
    27     5     6   ar
    28    16    10   ar
    29     6     1   ar
    30    29    20   ar
    31    29    23    1
    32     7     8    1
    33    24    30    1
@<TRIPOS>MOLECULE
*****
 30 33 0 0 0
SMALL
GASTEIGER

@<TRIPOS>ATOM
      1 C          63.3763   85.6740   15.6488 C.ar    1  UNL1        0.2172
      2 N          64.0563   86.3783   14.5124 N.ar    1  UNL1       -0.2126
      3 C          64.2042   87.8708   14.5360 C.ar    1  UNL1        0.0994
      4 C          63.6720   88.6590   15.6960 C.ar    1  UNL1        0.0207
      5 C          62.9920   87.9546   16.8325 C.ar    1  UNL1        0.0994
      6 N          62.8442   86.4622   16.8088 N.ar    1  UNL1       -0.2126
      7 N          63.2284   84.1815   15.6252 N.pl3   1  UNL1       -0.2989
      8 H          62.4838   83.7530   16.1060 H       1  UNL1        0.1500
      9 C          64.2150   83.3418   14.8692 C.3     1  UNL1        0.1212
     10 C          62.8409   81.7834   13.3093 C.ar    1  UNL1        0.2225
     11 N          62.5066   81.2905   11.9326 N.ar    1  UNL1       -0.2080
     12 C          63.2122   81.8630   10.7392 C.ar    1  UNL1        0.1316
     13 C          64.2520   82.9284   10.9224 C.ar    1  UNL1        0.1592
     14 F          64.9576   83.5009    9.7288 F       1  UNL1       -0.2025
     15 C          64.5863   83.4213   12.2990 C.ar    1  UNL1        0.0333
     16 C          63.8807   82.8488   13.4925 C.ar    1  UNL1        0.0529
     17 C          60.7660   80.6177   14.3514 C.3     1  UNL1        0.2542
     18 O          62.1353   81.2109   14.5028 O.3     1  UNL1       -0.4563
     19 C          63.8199   90.1516   15.7196 C.3     1  UNL1        0.0575
     20 C          64.5086   90.8550   14.5878 C.ar    1  UNL1        0.0044
     21 C          65.8355   91.5509   14.6591 C.ar    1  UNL1        0.0966
     22 N          66.1381   92.1119   13.3013 N.ar    1  UNL1       -0.2273
     23 C          64.9983   91.7628   12.3908 C.ar    1  UNL1        0.1403
     24 N          64.7473   92.0519   10.9406 N.ar    1  UNL1       -0.3367
     25 C          63.4892   91.5642   10.2854 C.ar    1  UNL1        0.0850
     26 C          62.4821   90.7873   11.0805 C.ar    1  UNL1        0.0747
     27 CL         61.2240   90.2996   10.4252 Cl      1  UNL1       -0.0807
     28 C          62.7331   90.4982   12.5308 C.ar    1  UNL1        0.0156
     29 C          63.9911   90.9860   13.1860 C.ar    1  UNL1        0.0327
     30 H          65.4083   92.5618   10.4187 H       1  UNL1        0.1674
@<TRIPOS>BOND
     1    17    18    1
     2    18    10    1
     3    10    11   ar
     4    11    12   ar
     5    12    13   ar
     6    13    14    1
     7    13    15   ar
     8    15    16   ar
     9    16     9    1
    10     9     7    1
    11     7     1    1
    12     1     2   ar
    13     2     3   ar
    14     3     4   ar
    15     4    19    1
    16    19    20    1
    17    20    21   ar
    18    21    22   ar
    19    22    23   ar
    20    23    24   ar
    21    24    25   ar
    22    25    26   ar
    23    26    27    1
    24    26    28   ar
    25    28    29   ar
    26     4     5   ar
    27     5     6   ar
    28    16    10   ar
    29     6     1   ar
    30    29    20   ar
    31    29    23    1
    32     7     8    1
    33    24    30    1
@<TRIPOS>MOLECULE
*****
 30 33 0 0 0
SMALL
GASTEIGER

@<TRIPOS>ATOM
      1 C          61.9635   88.7922   11.3818 C.ar    1  UNL1        0.2172
      2 N          62.6629   89.3126   12.6025 N.ar    1  UNL1       -0.2126
      3 C          63.5337   90.5301   12.5060 C.ar    1  UNL1        0.0994
      4 C          63.7052   91.2271   11.1890 C.ar    1  UNL1        0.0207
      5 C          63.0058   90.7067    9.9683 C.ar    1  UNL1        0.0994
      6 N          62.1350   89.4892   10.0648 N.ar    1  UNL1       -0.2126
      7 N          61.0927   87.5747   11.4782 N.pl3   1  UNL1       -0.2989
      8 H          60.4674   87.4752   12.2321 H       1  UNL1        0.1500
      9 C          61.1745   86.5087   10.4260 C.3     1  UNL1        0.1212
     10 C          62.9369   84.9129    9.3786 C.ar    1  UNL1        0.2225
     11 N          63.9213   83.7904    9.5232 N.ar    1  UNL1       -0.2080
     12 C          64.1277   83.1412   10.8597 C.ar    1  UNL1        0.1316
     13 C          63.3496   83.6146   12.0515 C.ar    1  UNL1        0.1592
     14 F          63.5560   82.9654   13.3879 F       1  UNL1       -0.2025
     15 C          62.3652   84.7371   11.9069 C.ar    1  UNL1        0.0333
     16 C          62.1589   85.3862   10.5705 C.ar    1  UNL1        0.0529
     17 C          61.8430   84.9129    7.0221 C.3     1  UNL1        0.2542
     18 O          62.7306   85.5620    8.0422 O.3     1  UNL1       -0.4563
     19 C          64.5761   92.4447   11.0925 C.3     1  UNL1        0.0575
     20 C          66.0409   92.3453   11.4001 C.ar    1  UNL1        0.0044
     21 C          67.1465   92.2197   10.3941 C.ar    1  UNL1        0.0966
     22 N          68.4461   92.1509   11.1400 N.ar    1  UNL1       -0.2273
     23 C          68.1437   92.2340   12.6068 C.ar    1  UNL1        0.1403
     24 N          69.0299   92.2157   13.8169 N.ar    1  UNL1       -0.3367
     25 C          68.4296   92.3177   15.1877 C.ar    1  UNL1        0.0850
     26 C          66.9431   92.4379   15.3485 C.ar    1  UNL1        0.0747
     27 CL         66.3428   92.5398   16.7194 Cl      1  UNL1       -0.0807
     28 C          66.0569   92.4561   14.1384 C.ar    1  UNL1        0.0156
     29 C          66.6572   92.3542   12.7676 C.ar    1  UNL1        0.0327
     30 H          70.0056   92.1369   13.7114 H       1  UNL1        0.1674
@<TRIPOS>BOND
     1    17    18    1
     2    18    10    1
     3    10    11   ar
     4    11    12   ar
     5    12    13   ar
     6    13    14    1
     7    13    15   ar
     8    15    16   ar
     9    16     9    1
    10     9     7    1
    11     7     1    1
    12     1     2   ar
    13     2     3   ar
    14     3     4   ar
    15     4    19    1
    16    19    20    1
    17    20    21   ar
    18    21    22   ar
    19    22    23   ar
    20    23    24   ar
    21    24    25   ar
    22    25    26   ar
    23    26    27    1
    24    26    28   ar
    25    28    29   ar
    26     4     5   ar
    27     5     6   ar
    28    16    10   ar
    29     6     1   ar
    30    29    20   ar
    31    29    23    1
    32     7     8    1
    33    24    30    1
@<TRIPOS>MOLECULE
*****
 30 33 0 0 0
SMALL
GASTEIGER

@<TRIPOS>ATOM
      1 C          60.9598   86.9410    9.1036 C.ar    1  UNL1        0.2172
      2 N          61.9277   86.4513    8.0675 N.ar    1  UNL1       -0.2126
      3 C          62.8926   85.3528    8.4024 C.ar    1  UNL1        0.0994
      4 C          62.8897   84.7440    9.7733 C.ar    1  UNL1        0.0207
      5 C          61.9219   85.2338   10.8094 C.ar    1  UNL1        0.0994
      6 N          60.9570   86.3323   10.4745 N.ar    1  UNL1       -0.2126
      7 N          59.9949   88.0395    8.7688 N.pl3   1  UNL1       -0.2989
      8 H          59.1238   87.8232    8.3643 H       1  UNL1        0.1500
      9 C          60.3571   89.4677    9.0502 C.3     1  UNL1        0.1212
     10 C          60.8085   89.4236   11.6084 C.ar    1  UNL1        0.2225
     11 N          61.6849   89.7585   12.7788 N.ar    1  UNL1       -0.2080
     12 C          62.9861   90.4724   12.5614 C.ar    1  UNL1        0.1316
     13 C          63.4109   90.8514   11.1736 C.ar    1  UNL1        0.1592
     14 F          64.7121   91.5653   10.9563 F       1  UNL1       -0.2025
     15 C          62.5345   90.5165   10.0033 C.ar    1  UNL1        0.0333
     16 C          61.2333   89.8026   10.2206 C.ar    1  UNL1        0.0529
     17 C          58.6224   89.0961   12.9736 C.3     1  UNL1        0.2542
     18 O          59.5073   88.7097   11.8258 O.3     1  UNL1       -0.4563
     19 C          63.8547   83.6455   10.1081 C.3     1  UNL1        0.0575
     20 C          63.6564   82.8251   11.3482 C.ar    1  UNL1        0.0044
     21 C          63.3338   81.3610   11.3945 C.ar    1  UNL1        0.0966
     22 N          63.2239   80.9559   12.8346 N.ar    1  UNL1       -0.2273
     23 C          63.4786   82.1697   13.6783 C.ar    1  UNL1        0.1403
     24 N          63.5017   82.3723   15.1643 N.ar    1  UNL1       -0.3367
     25 C          63.7921   83.7301   15.7317 C.ar    1  UNL1        0.0850
     26 C          64.0594   84.8853   14.8130 C.ar    1  UNL1        0.0747
     27 CL         64.3498   86.2432   15.3805 Cl      1  UNL1       -0.0807
     28 C          64.0363   84.6828   13.3270 C.ar    1  UNL1        0.0156
     29 C          63.7460   83.3250   12.7596 C.ar    1  UNL1        0.0327
     30 H          63.3263   81.6140   15.7673 H       1  UNL1        0.1674
@<TRIPOS>BOND
     1    17    18    1
     2    18    10    1
     3    10    11   ar
     4    11    12   ar
     5    12    13   ar
     6    13    14    1
     7    13    15   ar
     8    15    16   ar
     9    16     9    1
    10     9     7    1
    11     7     1    1
    12     1     2   ar
    13     2     3   ar
    14     3     4   ar
    15     4    19    1
    16    19    20    1
    17    20    21   ar
    18    21    22   ar
    19    22    23   ar
    20    23    24   ar
    21    24    25   ar
    22    25    26   ar
    23    26    27    1
    24    26    28   ar
    25    28    29   ar
    26     4     5   ar
    27     5     6   ar
    28    16    10   ar
    29     6     1   ar
    30    29    20   ar
    31    29    23    1
    32     7     8    1
    33    24    30    1
@<TRIPOS>MOLECULE
*****
 30 33 0 0 0
SMALL
GASTEIGER

@<TRIPOS>ATOM
      1 C          62.1092   87.8214   11.3636 C.ar    1  UNL1        0.2172
      2 N          62.8093   88.4686   12.5216 N.ar    1  UNL1       -0.2126
      3 C          63.3957   89.8410   12.3714 C.ar    1  UNL1        0.0994
      4 C          63.2821   90.5662   11.0633 C.ar    1  UNL1        0.0207
      5 C          62.5820   89.9189    9.9053 C.ar    1  UNL1        0.0994
      6 N          61.9955   88.5465   10.0555 N.ar    1  UNL1       -0.2126
      7 N          61.5227   86.4490   11.5138 N.pl3   1  UNL1       -0.2989
      8 H          60.5605   86.3417   11.6926 H       1  UNL1        0.1500
      9 C          62.4022   85.2399   11.3915 C.3     1  UNL1        0.1212
     10 C          63.0679   83.0962   12.6996 C.ar    1  UNL1        0.2225
     11 N          63.6253   82.4467   13.9314 N.ar    1  UNL1       -0.2080
     12 C          64.0744   83.2912   15.0869 C.ar    1  UNL1        0.1316
     13 C          63.9660   84.7854   15.0105 C.ar    1  UNL1        0.1592
     14 F          64.4152   85.6299   16.1660 F       1  UNL1       -0.2025
     15 C          63.4086   85.4349   13.7787 C.ar    1  UNL1        0.0333
     16 C          62.9595   84.5903   12.6233 C.ar    1  UNL1        0.0529
     17 C          63.6114   81.8013   10.5138 C.3     1  UNL1        0.2542
     18 O          62.6188   82.2516   11.5442 O.3     1  UNL1       -0.4563
     19 C          63.8685   91.9386   10.9131 C.3     1  UNL1        0.0575
     20 C          65.2899   92.1953   11.3180 C.ar    1  UNL1        0.0044
     21 C          66.4508   92.3871   10.3877 C.ar    1  UNL1        0.0966
     22 N          67.6782   92.6155   11.2191 N.ar    1  UNL1       -0.2273
     23 C          67.2759   92.5649   12.6632 C.ar    1  UNL1        0.1403
     24 N          68.0630   92.7217   13.9304 N.ar    1  UNL1       -0.3367
     25 C          67.3740   92.6189   15.2588 C.ar    1  UNL1        0.0850
     26 C          65.8979   92.3591   15.3200 C.ar    1  UNL1        0.0747
     27 CL         65.2089   92.2562   16.6485 Cl      1  UNL1       -0.0807
     28 C          65.1108   92.2023   14.0528 C.ar    1  UNL1        0.0156
     29 C          65.7998   92.3052   12.7244 C.ar    1  UNL1        0.0327
     30 H          69.0318   92.8922   13.8903 H       1  UNL1        0.1674
@<TRIPOS>BOND
     1    17    18    1
     2    18    10    1
     3    10    11   ar
     4    11    12   ar
     5    12    13   ar
     6    13    14    1
     7    13    15   ar
     8    15    16   ar
     9    16     9    1
    10     9     7    1
    11     7     1    1
    12     1     2   ar
    13     2     3   ar
    14     3     4   ar
    15     4    19    1
    16    19    20    1
    17    20    21   ar
    18    21    22   ar
    19    22    23   ar
    20    23    24   ar
    21    24    25   ar
    22    25    26   ar
    23    26    27    1
    24    26    28   ar
    25    28    29   ar
    26     4     5   ar
    27     5     6   ar
    28    16    10   ar
    29     6     1   ar
    30    29    20   ar
    31    29    23    1
    32     7     8    1
    33    24    30    1
@<TRIPOS>MOLECULE
*****
 30 33 0 0 0
SMALL
GASTEIGER

@<TRIPOS>ATOM
      1 C          62.2056   86.3535   11.0766 C.ar    1  UNL1        0.2172
      2 N          62.8991   86.9874   12.2459 N.ar    1  UNL1       -0.2126
      3 C          63.0775   88.4759   12.2951 C.ar    1  UNL1        0.0994
      4 C          62.5626   89.3305   11.1751 C.ar    1  UNL1        0.0207
      5 C          61.8692   88.6966   10.0058 C.ar    1  UNL1        0.0994
      6 N          61.6907   87.2081    9.9565 N.ar    1  UNL1       -0.2126
      7 N          62.0271   84.8650   11.0273 N.pl3   1  UNL1       -0.2989
      8 H          61.1648   84.4817   10.7467 H       1  UNL1        0.1500
      9 C          63.1624   83.9604   11.4053 C.3     1  UNL1        0.1212
     10 C          62.6124   82.7986   13.6631 C.ar    1  UNL1        0.2225
     11 N          62.3463   81.5499   14.4505 N.ar    1  UNL1       -0.2080
     12 C          62.3640   80.2145   13.7676 C.ar    1  UNL1        0.1316
     13 C          62.6478   80.1277   12.2973 C.ar    1  UNL1        0.1592
     14 F          62.6655   78.7923   11.6144 F       1  UNL1       -0.2025
     15 C          62.9140   81.3764   11.5099 C.ar    1  UNL1        0.0333
     16 C          62.8963   82.7118   12.1928 C.ar    1  UNL1        0.0529
     17 C          63.8527   84.6843   14.9499 C.3     1  UNL1        0.2542
     18 O          62.5948   84.1340   14.3461 O.3     1  UNL1       -0.4563
     19 C          62.7411   90.8191   11.2244 C.3     1  UNL1        0.0575
     20 C          63.7954   91.4192   12.1066 C.ar    1  UNL1        0.0044
     21 C          63.9484   91.1872   13.5807 C.ar    1  UNL1        0.0966
     22 N          65.1293   91.9813   14.0547 N.ar    1  UNL1       -0.2273
     23 C          65.7062   92.7041   12.8737 C.ar    1  UNL1        0.1403
     24 N          66.8757   93.6337   12.7391 N.ar    1  UNL1       -0.3367
     25 C          67.2207   94.2158   11.4004 C.ar    1  UNL1        0.0850
     26 C          66.3963   93.8684   10.1964 C.ar    1  UNL1        0.0747
     27 CL         66.7414   94.4506    8.8577 Cl      1  UNL1       -0.0807
     28 C          65.2269   92.9388   10.3311 C.ar    1  UNL1        0.0156
     29 C          64.8818   92.3567   11.6697 C.ar    1  UNL1        0.0327
     30 H          67.4168   93.8617   13.5293 H       1  UNL1        0.1674
@<TRIPOS>BOND
     1    17    18    1
     2    18    10    1
     3    10    11   ar
     4    11    12   ar
     5    12    13   ar
     6    13    14    1
     7    13    15   ar
     8    15    16   ar
     9    16     9    1
    10     9     7    1
    11     7     1    1
    12     1     2   ar
    13     2     3   ar
    14     3     4   ar
    15     4    19    1
    16    19    20    1
    17    20    21   ar
    18    21    22   ar
    19    22    23   ar
    20    23    24   ar
    21    24    25   ar
    22    25    26   ar
    23    26    27    1
    24    26    28   ar
    25    28    29   ar
    26     4     5   ar
    27     5     6   ar
    28    16    10   ar
    29     6     1   ar
    30    29    20   ar
    31    29    23    1
    32     7     8    1
    33    24    30    1
