@<TRIPOS>MOLECULE
*****
 39 41 0 0 0
SMALL
GASTEIGER

@<TRIPOS>ATOM
      1 C          61.0784   88.6194   10.5793 C.3     1  UNL1        0.1416
      2 C          59.9582   88.4603    9.5946 C.3     1  UNL1        0.2736
      3 S          59.8130   87.1817    8.8240 S.O     1  UNL1        0.0319
      4 O          58.6927   87.0226    7.8392 O.co2   1  UNL1       -0.6812
      5 C          60.7880   86.0621    9.0380 C.3     1  UNL1        0.2582
      6 C          61.9083   86.2211   10.0228 C.3     1  UNL1        0.0920
      7 C          62.0535   87.4998   10.7934 C.3     1  UNL1        0.1353
      8 O          63.1737   87.6589   11.7782 O.3     1  UNL1       -0.3827
      9 H          63.1231   88.5374   12.1864 H       1  UNL1        0.2104
     10 N          61.2237   89.8981   11.3501 N.3     1  UNL1       -0.2887
     11 H          60.2815   90.2562   11.5065 H       1  UNL1        0.1237
     12 C          62.0281   91.0292   10.7815 C.3     1  UNL1        0.0958
     13 C          65.6549   92.5784   11.2245 C.ar    1  UNL1       -0.0231
     14 C          65.9968   92.1085   12.6073 C.ar    1  UNL1       -0.0043
     15 C          65.0159   91.2788   13.3815 C.ar    1  UNL1       -0.0006
     16 C          63.6930   90.9190   12.7729 C.ar    1  UNL1       -0.0029
     17 C          63.3510   91.3890   11.3901 C.ar    1  UNL1       -0.0067
     18 C          64.3320   92.2187   10.6159 C.ar    1  UNL1       -0.0072
     19 C          67.5137   92.2049   10.2732 C.3     1  UNL1        0.0044
     20 C          66.6358   93.4082   10.4504 C.3     1  UNL1        0.0189
     21 C          65.7579   94.6114   10.6275 C.3     1  UNL1        0.0044
     22 C          67.6167   94.2379    9.6762 C.3     1  UNL1        0.0044
     23 C          62.8833   85.1016   10.2369 C.3     1  UNL1        0.0342
     24 C          62.7373   84.1966   11.4241 C.ar    1  UNL1       -0.0166
     25 C          62.7610   82.7080   11.2400 C.ar    1  UNL1        0.0268
     26 C          62.6150   81.8030   12.4272 C.ar    1  UNL1        0.1556
     27 F          62.6387   80.3146   12.2431 F       1  UNL1       -0.2028
     28 C          62.4452   82.3865   13.7986 C.ar    1  UNL1        0.1037
     29 N          62.2992   81.4815   14.9859 N.pl3   1  UNL1       -0.3529
     30 C          62.4215   83.8749   13.9828 C.ar    1  UNL1        0.1536
     31 C          62.5675   84.7800   12.7955 C.ar    1  UNL1        0.0341
     32 H          62.3147   80.5046   14.8651 H       1  UNL1        0.1425
     33 H          62.1877   81.8644   15.8860 H       1  UNL1        0.1425
     34 O          62.2517   84.4584   15.3542 O.3     1  UNL1       -0.4653
     35 C          63.4253   85.0720   16.0588 C.3     1  UNL1        0.3082
     36 C          63.3135   86.4495   16.6418 C.3     1  UNL1        0.4380
     37 F          63.2018   87.8270   17.2249 F       1  UNL1       -0.1663
     38 F          64.0212   87.0133   15.4454 F       1  UNL1       -0.1663
     39 F          62.6059   85.8857   17.8382 F       1  UNL1       -0.1663
@<TRIPOS>UNITY_ATOM_ATTR
3 1
charge 1
4 1
charge -1
@<TRIPOS>BOND
     1    19    20    1
     2    20    21    1
     3    20    22    1
     4    20    13    1
     5    13    14   ar
     6    14    15   ar
     7    15    16   ar
     8    16    17   ar
     9    17    12    1
    10    12    10    1
    11     1    10    1
    12     1     2    1
    13     2     3    1
    14     3     4    2
    15     3     5    1
    16     5     6    1
    17     6    23    1
    18    23    24    1
    19    24    25   ar
    20    25    26   ar
    21    26    27    1
    22    26    28   ar
    23    28    29    1
    24    28    30   ar
    25    30    34    1
    26    34    35    1
    27    35    36    1
    28    36    37    1
    29    36    38    1
    30    36    39    1
    31    30    31   ar
    32     6     7    1
    33     7     8    1
    34    17    18   ar
    35    18    13   ar
    36     7     1    1
    37    31    24   ar
    38    10    11    1
    39    29    32    1
    40    29    33    1
    41     8     9    1
@<TRIPOS>MOLECULE
*****
 39 41 0 0 0
SMALL
GASTEIGER

@<TRIPOS>ATOM
      1 C          61.0767   88.7181   10.6604 C.3     1  UNL1        0.1416
      2 C          59.9631   88.6048    9.6620 C.3     1  UNL1        0.2736
      3 S          59.8061   87.3517    8.8526 S.O     1  UNL1        0.0319
      4 O          58.6924   87.2384    7.8541 O.co2   1  UNL1       -0.6812
      5 C          60.7627   86.2120    9.0417 C.3     1  UNL1        0.2582
      6 C          61.8763   86.3252   10.0402 C.3     1  UNL1        0.0920
      7 C          62.0333   87.5783   10.8496 C.3     1  UNL1        0.1353
      8 O          63.1470   87.6917   11.8481 O.3     1  UNL1       -0.3827
      9 H          63.1056   88.5584   12.2816 H       1  UNL1        0.2104
     10 N          61.2338   89.9712   11.4699 N.3     1  UNL1       -0.2887
     11 H          61.4612   90.7187   10.8142 H       1  UNL1        0.1237
     12 C          62.2546   90.0323   12.5671 C.3     1  UNL1        0.0958
     13 C          65.7327   91.7843   13.3311 C.ar    1  UNL1       -0.0231
     14 C          66.0044   92.4590   12.0193 C.ar    1  UNL1       -0.0043
     15 C          65.0262   92.3249   10.8901 C.ar    1  UNL1       -0.0006
     16 C          63.7763   91.5160   11.0727 C.ar    1  UNL1       -0.0029
     17 C          63.5046   90.8413   12.3845 C.ar    1  UNL1       -0.0067
     18 C          64.4828   90.9754   13.5137 C.ar    1  UNL1       -0.0072
     19 C          67.8461   91.8913   13.4801 C.3     1  UNL1        0.0044
     20 C          66.7109   91.9185   14.4603 C.3     1  UNL1        0.0189
     21 C          65.5757   91.9457   15.4404 C.3     1  UNL1        0.0044
     22 C          67.6891   92.0527   15.5895 C.3     1  UNL1        0.0044
     23 C          62.8329   85.1854   10.2293 C.3     1  UNL1        0.0342
     24 C          62.7062   84.2907   11.4265 C.ar    1  UNL1       -0.0166
     25 C          62.7851   82.8018   11.2618 C.ar    1  UNL1        0.0268
     26 C          62.6584   81.9071   12.4591 C.ar    1  UNL1        0.1556
     27 F          62.7372   80.4183   12.2943 F       1  UNL1       -0.2028
     28 C          62.4528   82.5011   13.8210 C.ar    1  UNL1        0.1037
     29 N          62.3260   81.6064   15.0182 N.pl3   1  UNL1       -0.3529
     30 C          62.3739   83.9900   13.9857 C.ar    1  UNL1        0.1536
     31 C          62.5006   84.8848   12.7884 C.ar    1  UNL1        0.0341
     32 H          62.3778   80.6292   14.9101 H       1  UNL1        0.1425
     33 H          62.1911   81.9963   15.9120 H       1  UNL1        0.1425
     34 O          62.1683   84.5840   15.3476 O.3     1  UNL1       -0.4653
     35 C          63.3365   85.1377   16.1084 C.3     1  UNL1        0.3082
     36 C          63.2445   86.4949   16.7406 C.3     1  UNL1        0.4380
     37 F          63.1525   87.8521   17.3728 F       1  UNL1       -0.1663
     38 F          62.5219   85.9000   17.9128 F       1  UNL1       -0.1663
     39 F          63.9670   87.0899   15.5685 F       1  UNL1       -0.1663
@<TRIPOS>UNITY_ATOM_ATTR
3 1
charge 1
4 1
charge -1
@<TRIPOS>BOND
     1    19    20    1
     2    20    21    1
     3    20    22    1
     4    20    13    1
     5    13    14   ar
     6    14    15   ar
     7    15    16   ar
     8    16    17   ar
     9    17    12    1
    10    12    10    1
    11     1    10    1
    12     1     2    1
    13     2     3    1
    14     3     4    2
    15     3     5    1
    16     5     6    1
    17     6    23    1
    18    23    24    1
    19    24    25   ar
    20    25    26   ar
    21    26    27    1
    22    26    28   ar
    23    28    29    1
    24    28    30   ar
    25    30    34    1
    26    34    35    1
    27    35    36    1
    28    36    37    1
    29    36    38    1
    30    36    39    1
    31    30    31   ar
    32     6     7    1
    33     7     8    1
    34    17    18   ar
    35    18    13   ar
    36     7     1    1
    37    31    24   ar
    38    10    11    1
    39    29    32    1
    40    29    33    1
    41     8     9    1
@<TRIPOS>MOLECULE
*****
 39 41 0 0 0
SMALL
GASTEIGER

@<TRIPOS>ATOM
      1 C          63.5677   91.2294   11.2483 C.3     1  UNL1        0.1416
      2 C          64.8608   91.9328   10.9602 C.3     1  UNL1        0.2736
      3 S          65.8185   92.2286   12.0762 S.O     1  UNL1        0.0319
      4 O          67.1116   92.9321   11.7881 O.co2   1  UNL1       -0.6812
      5 C          65.4830   91.8209   13.4802 C.3     1  UNL1        0.2582
      6 C          64.1900   91.1174   13.7683 C.3     1  UNL1        0.0920
      7 C          63.2323   90.8217   12.6524 C.3     1  UNL1        0.1353
      8 O          61.9392   90.1182   12.9404 O.3     1  UNL1       -0.3827
      9 H          61.4414   90.0059   12.1155 H       1  UNL1        0.2104
     10 N          62.6100   90.9336   10.1324 N.3     1  UNL1       -0.2887
     11 H          62.3031   91.8328    9.7616 H       1  UNL1        0.1237
     12 C          61.3718   90.1302   10.3998 C.3     1  UNL1        0.0958
     13 C          61.7206   86.4257    9.0197 C.ar    1  UNL1       -0.0231
     14 C          60.5755   86.3747    8.0521 C.ar    1  UNL1       -0.0043
     15 C          59.6959   87.5755    7.8671 C.ar    1  UNL1       -0.0006
     16 C          59.9613   88.8273    8.6497 C.ar    1  UNL1       -0.0029
     17 C          61.1063   88.8784    9.6172 C.ar    1  UNL1       -0.0067
     18 C          61.9860   87.6775    9.8022 C.ar    1  UNL1       -0.0072
     19 C          62.8758   85.1996    7.7304 C.3     1  UNL1        0.0044
     20 C          62.6003   85.2249    9.2047 C.3     1  UNL1        0.0189
     21 C          62.3248   85.2502   10.6789 C.3     1  UNL1        0.0044
     22 C          63.4799   84.0241    9.3897 C.3     1  UNL1        0.0044
     23 C          63.8546   90.7097   15.1723 C.3     1  UNL1        0.0342
     24 C          63.7572   89.2559   15.5282 C.ar    1  UNL1       -0.0166
     25 C          63.1405   88.8423   16.8315 C.ar    1  UNL1        0.0268
     26 C          63.0431   87.3884   17.1874 C.ar    1  UNL1        0.1556
     27 F          62.4264   86.9750   18.4907 F       1  UNL1       -0.2028
     28 C          63.5625   86.3480   16.2399 C.ar    1  UNL1        0.1037
     29 N          63.4652   84.8941   16.5957 N.pl3   1  UNL1       -0.3529
     30 C          64.1793   86.7614   14.9366 C.ar    1  UNL1        0.1536
     31 C          64.2767   88.2154   14.5807 C.ar    1  UNL1        0.0341
     32 H          63.0604   84.6227   17.4511 H       1  UNL1        0.1425
     33 H          63.8061   84.2112   15.9739 H       1  UNL1        0.1425
     34 O          64.6987   85.7210   13.9891 O.3     1  UNL1       -0.4653
     35 C          63.7559   84.7303   13.3728 C.3     1  UNL1        0.3082
     36 C          64.1834   83.3049   13.1848 C.3     1  UNL1        0.4380
     37 F          64.6109   81.8794   12.9968 F       1  UNL1       -0.1663
     38 F          63.2925   82.8883   14.3174 F       1  UNL1       -0.1663
     39 F          65.0743   83.7214   12.0522 F       1  UNL1       -0.1663
@<TRIPOS>UNITY_ATOM_ATTR
3 1
charge 1
4 1
charge -1
@<TRIPOS>BOND
     1    19    20    1
     2    20    21    1
     3    20    22    1
     4    20    13    1
     5    13    14   ar
     6    14    15   ar
     7    15    16   ar
     8    16    17   ar
     9    17    12    1
    10    12    10    1
    11     1    10    1
    12     1     2    1
    13     2     3    1
    14     3     4    2
    15     3     5    1
    16     5     6    1
    17     6    23    1
    18    23    24    1
    19    24    25   ar
    20    25    26   ar
    21    26    27    1
    22    26    28   ar
    23    28    29    1
    24    28    30   ar
    25    30    34    1
    26    34    35    1
    27    35    36    1
    28    36    37    1
    29    36    38    1
    30    36    39    1
    31    30    31   ar
    32     6     7    1
    33     7     8    1
    34    17    18   ar
    35    18    13   ar
    36     7     1    1
    37    31    24   ar
    38    10    11    1
    39    29    32    1
    40    29    33    1
    41     8     9    1
@<TRIPOS>MOLECULE
*****
 39 41 0 0 0
SMALL
GASTEIGER

@<TRIPOS>ATOM
      1 C          63.3517   82.4206   11.8688 C.3     1  UNL1        0.1416
      2 C          62.1481   81.6616   12.3432 C.3     1  UNL1        0.2736
      3 S          61.7562   81.7054   13.7904 S.O     1  UNL1        0.0319
      4 O          60.5525   80.9463   14.2649 O.co2   1  UNL1       -0.6812
      5 C          62.5680   82.5082   14.7633 C.3     1  UNL1        0.2582
      6 C          63.7716   83.2673   14.2889 C.3     1  UNL1        0.0920
      7 C          64.1635   83.2235   12.8417 C.3     1  UNL1        0.1353
      8 O          65.3672   83.9826   12.3672 O.3     1  UNL1       -0.3827
      9 H          65.4788   83.8482   11.4131 H       1  UNL1        0.2104
     10 N          63.7436   82.3769   10.4215 N.3     1  UNL1       -0.2887
     11 H          64.5447   81.7494   10.3523 H       1  UNL1        0.1237
     12 C          64.1209   83.6412    9.7081 C.3     1  UNL1        0.0958
     13 C          61.2792   86.3830    9.3104 C.ar    1  UNL1       -0.0231
     14 C          60.9296   86.2205    7.8608 C.ar    1  UNL1       -0.0043
     15 C          61.6436   85.1984    7.0270 C.ar    1  UNL1       -0.0006
     16 C          62.7074   84.3386    7.6427 C.ar    1  UNL1       -0.0029
     17 C          63.0571   84.5010    9.0923 C.ar    1  UNL1       -0.0067
     18 C          62.3430   85.5232    9.9261 C.ar    1  UNL1       -0.0072
     19 C          60.9925   86.6874   11.3901 C.3     1  UNL1        0.0044
     20 C          60.5652   87.4052   10.1442 C.3     1  UNL1        0.0189
     21 C          60.1379   88.1229    8.8983 C.3     1  UNL1        0.0044
     22 C          59.8511   88.4273   10.9780 C.3     1  UNL1        0.0044
     23 C          64.5834   84.0701   15.2617 C.3     1  UNL1        0.0342
     24 C          64.1695   85.4694   15.6088 C.ar    1  UNL1       -0.0166
     25 C          63.4397   85.7394   16.8913 C.ar    1  UNL1        0.0268
     26 C          63.0258   87.1387   17.2384 C.ar    1  UNL1        0.1556
     27 F          62.2961   87.4087   18.5208 F       1  UNL1       -0.2028
     28 C          63.3415   88.2681   16.3030 C.ar    1  UNL1        0.1037
     29 N          62.9275   89.6674   16.6501 N.pl3   1  UNL1       -0.3529
     30 C          64.0711   87.9982   15.0206 C.ar    1  UNL1        0.1536
     31 C          64.4851   86.5988   14.6735 C.ar    1  UNL1        0.0341
     32 H          62.4486   89.8446   17.4918 H       1  UNL1        0.1425
     33 H          63.1347   90.4086   16.0362 H       1  UNL1        0.1425
     34 O          64.3868   89.1275   14.0852 O.3     1  UNL1       -0.4653
     35 C          63.2768   89.8546   13.3858 C.3     1  UNL1        0.3082
     36 C          63.1368   89.7546   11.8957 C.3     1  UNL1        0.4380
     37 F          62.9968   89.6546   10.4056 F       1  UNL1       -0.1663
     38 F          62.8044   91.2158   11.8288 F       1  UNL1       -0.1663
     39 F          63.4691   88.2934   11.9625 F       1  UNL1       -0.1663
@<TRIPOS>UNITY_ATOM_ATTR
3 1
charge 1
4 1
charge -1
@<TRIPOS>BOND
     1    19    20    1
     2    20    21    1
     3    20    22    1
     4    20    13    1
     5    13    14   ar
     6    14    15   ar
     7    15    16   ar
     8    16    17   ar
     9    17    12    1
    10    12    10    1
    11     1    10    1
    12     1     2    1
    13     2     3    1
    14     3     4    2
    15     3     5    1
    16     5     6    1
    17     6    23    1
    18    23    24    1
    19    24    25   ar
    20    25    26   ar
    21    26    27    1
    22    26    28   ar
    23    28    29    1
    24    28    30   ar
    25    30    34    1
    26    34    35    1
    27    35    36    1
    28    36    37    1
    29    36    38    1
    30    36    39    1
    31    30    31   ar
    32     6     7    1
    33     7     8    1
    34    17    18   ar
    35    18    13   ar
    36     7     1    1
    37    31    24   ar
    38    10    11    1
    39    29    32    1
    40    29    33    1
    41     8     9    1
@<TRIPOS>MOLECULE
*****
 39 41 0 0 0
SMALL
GASTEIGER

@<TRIPOS>ATOM
      1 C          62.9750   88.1440   12.2125 C.3     1  UNL1        0.1416
      2 C          62.4500   88.7568   10.9481 C.3     1  UNL1        0.2736
      3 S          62.5361   90.2400   10.7415 S.O     1  UNL1        0.0319
      4 O          62.0111   90.8529    9.4770 O.co2   1  UNL1       -0.6812
      5 C          63.1471   91.1104   11.7993 C.3     1  UNL1        0.2582
      6 C          63.6721   90.4976   13.0638 C.3     1  UNL1        0.0920
      7 C          63.5860   89.0144   13.2704 C.3     1  UNL1        0.1353
      8 O          64.1110   88.4016   14.5349 O.3     1  UNL1       -0.3827
      9 H          63.9788   87.4410   14.5078 H       1  UNL1        0.2104
     10 N          62.8890   86.6608   12.4191 N.3     1  UNL1       -0.2887
     11 H          63.8392   86.3317   12.5898 H       1  UNL1        0.1237
     12 C          62.3141   85.7860   11.3448 C.3     1  UNL1        0.0958
     13 C          62.8126   81.9142   12.0595 C.ar    1  UNL1       -0.0231
     14 C          63.7112   81.5293   10.9219 C.ar    1  UNL1       -0.0043
     15 C          64.1441   82.5634    9.9252 C.ar    1  UNL1       -0.0006
     16 C          63.6784   83.9822   10.0661 C.ar    1  UNL1       -0.0029
     17 C          62.7798   84.3671   11.2038 C.ar    1  UNL1       -0.0067
     18 C          62.3469   83.3330   12.2005 C.ar    1  UNL1       -0.0072
     19 C          62.0845   81.9630   14.0514 C.3     1  UNL1        0.0044
     20 C          62.3797   80.8802   13.0562 C.3     1  UNL1        0.0189
     21 C          62.6749   79.7973   12.0611 C.3     1  UNL1        0.0044
     22 C          61.9468   79.8462   14.0529 C.3     1  UNL1        0.0044
     23 C          64.2831   91.3680   14.1216 C.3     1  UNL1        0.0342
     24 C          65.7608   91.6258   14.1195 C.ar    1  UNL1       -0.0166
     25 C          66.4882   91.8309   15.4153 C.ar    1  UNL1        0.0268
     26 C          67.9658   92.0887   15.4132 C.ar    1  UNL1        0.1556
     27 F          68.6931   92.2939   16.7089 F       1  UNL1       -0.2028
     28 C          68.7161   92.1413   14.1154 C.ar    1  UNL1        0.1037
     29 N          70.1938   92.3990   14.1133 N.pl3   1  UNL1       -0.3529
     30 C          67.9888   91.9361   12.8197 C.ar    1  UNL1        0.1536
     31 C          66.5111   91.6783   12.8218 C.ar    1  UNL1        0.0341
     32 H          70.6712   92.5337   14.9637 H       1  UNL1        0.1425
     33 H          70.6863   92.4335   13.2615 H       1  UNL1        0.1425
     34 O          68.7392   91.9887   11.5219 O.3     1  UNL1       -0.4653
     35 C          67.9917   91.9597   10.2217 C.3     1  UNL1        0.3082
     36 C          68.0360   93.1457    9.3045 C.3     1  UNL1        0.4380
     37 F          68.0803   94.3318    8.3874 F       1  UNL1       -0.1663
     38 F          67.1944   93.9248   10.2714 F       1  UNL1       -0.1663
     39 F          68.8776   92.3666    8.3377 F       1  UNL1       -0.1663
@<TRIPOS>UNITY_ATOM_ATTR
3 1
charge 1
4 1
charge -1
@<TRIPOS>BOND
     1    19    20    1
     2    20    21    1
     3    20    22    1
     4    20    13    1
     5    13    14   ar
     6    14    15   ar
     7    15    16   ar
     8    16    17   ar
     9    17    12    1
    10    12    10    1
    11     1    10    1
    12     1     2    1
    13     2     3    1
    14     3     4    2
    15     3     5    1
    16     5     6    1
    17     6    23    1
    18    23    24    1
    19    24    25   ar
    20    25    26   ar
    21    26    27    1
    22    26    28   ar
    23    28    29    1
    24    28    30   ar
    25    30    34    1
    26    34    35    1
    27    35    36    1
    28    36    37    1
    29    36    38    1
    30    36    39    1
    31    30    31   ar
    32     6     7    1
    33     7     8    1
    34    17    18   ar
    35    18    13   ar
    36     7     1    1
    37    31    24   ar
    38    10    11    1
    39    29    32    1
    40    29    33    1
    41     8     9    1
@<TRIPOS>MOLECULE
*****
 39 41 0 0 0
SMALL
GASTEIGER

@<TRIPOS>ATOM
      1 C          61.8645   87.0976    9.7062 C.3     1  UNL1        0.1416
      2 C          60.8667   87.4384    8.6394 C.3     1  UNL1        0.2736
      3 S          60.1765   88.7701    8.6560 S.O     1  UNL1        0.0319
      4 O          59.1786   89.1110    7.5891 O.co2   1  UNL1       -0.6812
      5 C          60.4841   89.7609    9.7393 C.3     1  UNL1        0.2582
      6 C          61.4819   89.4201   10.8061 C.3     1  UNL1        0.0920
      7 C          62.1721   88.0884   10.7896 C.3     1  UNL1        0.1353
      8 O          63.1700   87.7476   11.8565 O.3     1  UNL1       -0.3827
      9 H          63.5198   86.8566   11.6992 H       1  UNL1        0.2104
     10 N          62.5548   85.7659    9.6898 N.3     1  UNL1       -0.2887
     11 H          62.5746   85.4566    8.7180 H       1  UNL1        0.1237
     12 C          62.0055   84.6264   10.4958 C.3     1  UNL1        0.0958
     13 C          63.4969   84.4231   14.1679 C.ar    1  UNL1       -0.0231
     14 C          64.2515   83.1287   14.0961 C.ar    1  UNL1       -0.0043
     15 C          64.2573   82.3335   12.8243 C.ar    1  UNL1       -0.0006
     16 C          63.5087   82.8327   11.6242 C.ar    1  UNL1       -0.0029
     17 C          62.7542   84.1271   11.6959 C.ar    1  UNL1       -0.0067
     18 C          62.7483   84.9223   12.9678 C.ar    1  UNL1       -0.0072
     19 C          64.6462   86.0320   14.9363 C.3     1  UNL1        0.0044
     20 C          63.4911   85.2183   15.4398 C.3     1  UNL1        0.0189
     21 C          62.3359   84.4046   15.9432 C.3     1  UNL1        0.0044
     22 C          63.4852   86.0135   16.7116 C.3     1  UNL1        0.0044
     23 C          61.7895   90.4109   11.8895 C.3     1  UNL1        0.0342
     24 C          63.1668   90.9939   12.0036 C.ar    1  UNL1       -0.0166
     25 C          63.7695   91.7272   10.8420 C.ar    1  UNL1        0.0268
     26 C          65.1468   92.3102   10.9562 C.ar    1  UNL1        0.1556
     27 F          65.7495   93.0434    9.7946 F       1  UNL1       -0.2028
     28 C          65.9215   92.1600   12.2318 C.ar    1  UNL1        0.1037
     29 N          67.2988   92.7431   12.3460 N.pl3   1  UNL1       -0.3529
     30 C          65.3189   91.4268   13.3934 C.ar    1  UNL1        0.1536
     31 C          63.9415   90.8438   13.2793 C.ar    1  UNL1        0.0341
     32 H          67.6944   93.2243   11.5836 H       1  UNL1        0.1425
     33 H          67.8073   92.6445   13.1832 H       1  UNL1        0.1425
     34 O          66.0936   91.2767   14.6690 O.3     1  UNL1       -0.4653
     35 C          66.1659   92.4167   15.6412 C.3     1  UNL1        0.3082
     36 C          67.4528   93.1651   15.8250 C.3     1  UNL1        0.4380
     37 F          68.7397   93.9136   16.0088 F       1  UNL1       -0.1663
     38 F          66.9805   94.2137   14.8619 F       1  UNL1       -0.1663
     39 F          67.9250   92.1166   16.7881 F       1  UNL1       -0.1663
@<TRIPOS>UNITY_ATOM_ATTR
3 1
charge 1
4 1
charge -1
@<TRIPOS>BOND
     1    19    20    1
     2    20    21    1
     3    20    22    1
     4    20    13    1
     5    13    14   ar
     6    14    15   ar
     7    15    16   ar
     8    16    17   ar
     9    17    12    1
    10    12    10    1
    11     1    10    1
    12     1     2    1
    13     2     3    1
    14     3     4    2
    15     3     5    1
    16     5     6    1
    17     6    23    1
    18    23    24    1
    19    24    25   ar
    20    25    26   ar
    21    26    27    1
    22    26    28   ar
    23    28    29    1
    24    28    30   ar
    25    30    34    1
    26    34    35    1
    27    35    36    1
    28    36    37    1
    29    36    38    1
    30    36    39    1
    31    30    31   ar
    32     6     7    1
    33     7     8    1
    34    17    18   ar
    35    18    13   ar
    36     7     1    1
    37    31    24   ar
    38    10    11    1
    39    29    32    1
    40    29    33    1
    41     8     9    1
@<TRIPOS>MOLECULE
*****
 39 41 0 0 0
SMALL
GASTEIGER

@<TRIPOS>ATOM
      1 C          61.5135   90.1798   10.7745 C.3     1  UNL1        0.1416
      2 C          60.2970   90.3393   11.6373 C.3     1  UNL1        0.2736
      3 S          59.3997   89.1648   11.8930 S.O     1  UNL1        0.0319
      4 O          58.1831   89.3243   12.7559 O.co2   1  UNL1       -0.6812
      5 C          59.7189   87.8309   11.2858 C.3     1  UNL1        0.2582
      6 C          60.9354   87.6714   10.4229 C.3     1  UNL1        0.0920
      7 C          61.8327   88.8458   10.1672 C.3     1  UNL1        0.1353
      8 O          63.0494   88.6864    9.3043 O.3     1  UNL1       -0.3827
      9 H          63.5151   89.5350    9.2421 H       1  UNL1        0.2104
     10 N          62.4110   91.3543   10.5188 N.3     1  UNL1       -0.2887
     11 H          62.3899   91.5276    9.5138 H       1  UNL1        0.1237
     12 C          63.8556   91.2952   10.9178 C.3     1  UNL1        0.0958
     13 C          65.9100   91.7373   14.2845 C.ar    1  UNL1       -0.0231
     14 C          64.9813   91.0923   15.2700 C.ar    1  UNL1       -0.0043
     15 C          63.6774   90.5148   14.8049 C.ar    1  UNL1       -0.0006
     16 C          63.3021   90.5825   13.3542 C.ar    1  UNL1       -0.0029
     17 C          64.2309   91.2275   12.3686 C.ar    1  UNL1       -0.0067
     18 C          65.5348   91.8049   12.8338 C.ar    1  UNL1       -0.0072
     19 C          67.8574   91.9011   13.4593 C.3     1  UNL1        0.0044
     20 C          67.2139   92.3147   14.7496 C.3     1  UNL1        0.0189
     21 C          66.5705   92.7283   16.0400 C.3     1  UNL1        0.0044
     22 C          68.5179   92.8921   15.2148 C.3     1  UNL1        0.0044
     23 C          61.2546   86.3374    9.8157 C.3     1  UNL1        0.0342
     24 C          62.1724   85.3891   10.5287 C.ar    1  UNL1       -0.0166
     25 C          62.9967   84.4113    9.7449 C.ar    1  UNL1        0.0268
     26 C          63.9145   83.4630   10.4579 C.ar    1  UNL1        0.1556
     27 F          64.7388   82.4852    9.6741 F       1  UNL1       -0.2028
     28 C          64.0079   83.4924   11.9547 C.ar    1  UNL1        0.1037
     29 N          64.9256   82.5441   12.6677 N.pl3   1  UNL1       -0.3529
     30 C          63.1836   84.4702   12.7385 C.ar    1  UNL1        0.1536
     31 C          62.2658   85.4186   12.0255 C.ar    1  UNL1        0.0341
     32 H          65.4667   81.9023   12.1532 H       1  UNL1        0.1425
     33 H          64.9869   82.5635   13.6501 H       1  UNL1        0.1425
     34 O          63.2770   84.4997   14.2353 O.3     1  UNL1       -0.4653
     35 C          64.3375   85.3229   14.9045 C.3     1  UNL1        0.3082
     36 C          63.9548   86.5344   15.7018 C.3     1  UNL1        0.4380
     37 F          63.5721   87.7460   16.4991 F       1  UNL1       -0.1663
     38 F          64.6758   87.4089   14.7192 F       1  UNL1       -0.1663
     39 F          63.2338   85.6600   16.6844 F       1  UNL1       -0.1663
@<TRIPOS>UNITY_ATOM_ATTR
3 1
charge 1
4 1
charge -1
@<TRIPOS>BOND
     1    19    20    1
     2    20    21    1
     3    20    22    1
     4    20    13    1
     5    13    14   ar
     6    14    15   ar
     7    15    16   ar
     8    16    17   ar
     9    17    12    1
    10    12    10    1
    11     1    10    1
    12     1     2    1
    13     2     3    1
    14     3     4    2
    15     3     5    1
    16     5     6    1
    17     6    23    1
    18    23    24    1
    19    24    25   ar
    20    25    26   ar
    21    26    27    1
    22    26    28   ar
    23    28    29    1
    24    28    30   ar
    25    30    34    1
    26    34    35    1
    27    35    36    1
    28    36    37    1
    29    36    38    1
    30    36    39    1
    31    30    31   ar
    32     6     7    1
    33     7     8    1
    34    17    18   ar
    35    18    13   ar
    36     7     1    1
    37    31    24   ar
    38    10    11    1
    39    29    32    1
    40    29    33    1
    41     8     9    1
@<TRIPOS>MOLECULE
*****
 39 41 0 0 0
SMALL
GASTEIGER

@<TRIPOS>ATOM
      1 C          61.9145   87.0937    9.7337 C.3     1  UNL1        0.1416
      2 C          60.9634   87.4356    8.6253 C.3     1  UNL1        0.2736
      3 S          60.2562   88.7584    8.6253 S.O     1  UNL1        0.0319
      4 O          59.3051   89.1003    7.5169 O.co2   1  UNL1       -0.6812
      5 C          60.5001   89.7393    9.7336 C.3     1  UNL1        0.2582
      6 C          61.4511   89.3974   10.8420 C.3     1  UNL1        0.0920
      7 C          62.1583   88.0746   10.8420 C.3     1  UNL1        0.1353
      8 O          63.1095   87.7326   11.9504 O.3     1  UNL1       -0.3827
      9 H          63.4776   86.8480   11.7992 H       1  UNL1        0.2104
     10 N          62.6218   85.7709    9.7338 N.3     1  UNL1       -0.2887
     11 H          62.7283   85.4939    8.7579 H       1  UNL1        0.1237
     12 C          62.0216   84.5995   10.4532 C.3     1  UNL1        0.0958
     13 C          63.4258   84.3098   14.1538 C.ar    1  UNL1       -0.0231
     14 C          64.0340   82.9392   14.1197 C.ar    1  UNL1       -0.0043
     15 C          63.9715   82.1219   12.8635 C.ar    1  UNL1       -0.0006
     16 C          63.3007   82.6753   11.6413 C.ar    1  UNL1       -0.0029
     17 C          62.6924   84.0460   11.6754 C.ar    1  UNL1       -0.0067
     18 C          62.7550   84.8633   12.9317 C.ar    1  UNL1       -0.0072
     19 C          62.2702   84.4224   15.9292 C.3     1  UNL1        0.0044
     20 C          63.4884   85.1271   15.4101 C.3     1  UNL1        0.0189
     21 C          64.7066   85.8317   14.8910 C.3     1  UNL1        0.0044
     22 C          63.5509   85.9443   16.6663 C.3     1  UNL1        0.0044
     23 C          61.6950   90.3783   11.9503 C.3     1  UNL1        0.0342
     24 C          63.0742   90.9205   12.1820 C.ar    1  UNL1       -0.0166
     25 C          63.7859   90.6344   13.4711 C.ar    1  UNL1        0.0268
     26 C          65.1651   91.1767   13.7027 C.ar    1  UNL1        0.1556
     27 F          65.8767   90.8905   14.9918 F       1  UNL1       -0.2028
     28 C          65.8327   92.0051   12.6454 C.ar    1  UNL1        0.1037
     29 N          67.2118   92.5474   12.8770 N.pl3   1  UNL1       -0.3529
     30 C          65.1210   92.2912   11.3563 C.ar    1  UNL1        0.1536
     31 C          63.7418   91.7489   11.1246 C.ar    1  UNL1        0.0341
     32 H          67.6789   92.3596   13.7231 H       1  UNL1        0.1425
     33 H          67.6500   93.0911   12.1830 H       1  UNL1        0.1425
     34 O          65.7886   93.1196   10.2989 O.3     1  UNL1       -0.4653
     35 C          65.8830   94.6080   10.4606 C.3     1  UNL1        0.3082
     36 C          66.8917   95.3859    9.6685 C.3     1  UNL1        0.4380
     37 F          67.9004   96.1639    8.8765 F       1  UNL1       -0.1663
     38 F          66.8116   96.5043   10.6650 F       1  UNL1       -0.1663
     39 F          66.9718   94.2676    8.6721 F       1  UNL1       -0.1663
@<TRIPOS>UNITY_ATOM_ATTR
3 1
charge 1
4 1
charge -1
@<TRIPOS>BOND
     1    19    20    1
     2    20    21    1
     3    20    22    1
     4    20    13    1
     5    13    14   ar
     6    14    15   ar
     7    15    16   ar
     8    16    17   ar
     9    17    12    1
    10    12    10    1
    11     1    10    1
    12     1     2    1
    13     2     3    1
    14     3     4    2
    15     3     5    1
    16     5     6    1
    17     6    23    1
    18    23    24    1
    19    24    25   ar
    20    25    26   ar
    21    26    27    1
    22    26    28   ar
    23    28    29    1
    24    28    30   ar
    25    30    34    1
    26    34    35    1
    27    35    36    1
    28    36    37    1
    29    36    38    1
    30    36    39    1
    31    30    31   ar
    32     6     7    1
    33     7     8    1
    34    17    18   ar
    35    18    13   ar
    36     7     1    1
    37    31    24   ar
    38    10    11    1
    39    29    32    1
    40    29    33    1
    41     8     9    1
@<TRIPOS>MOLECULE
*****
 39 41 0 0 0
SMALL
GASTEIGER

@<TRIPOS>ATOM
      1 C          61.5586   90.0928   11.6582 C.3     1  UNL1        0.1416
      2 C          60.1744   90.1392   12.2341 C.3     1  UNL1        0.2736
      3 S          59.2343   88.9901   12.0204 S.O     1  UNL1        0.0319
      4 O          57.8500   89.0365   12.5963 O.co2   1  UNL1       -0.6812
      5 C          59.6784   87.7946   11.2308 C.3     1  UNL1        0.2582
      6 C          61.0627   87.7482   10.6549 C.3     1  UNL1        0.0920
      7 C          62.0027   88.8973   10.8686 C.3     1  UNL1        0.1353
      8 O          63.3871   88.8510   10.2927 O.3     1  UNL1       -0.3827
      9 H          63.8600   89.6663   10.5217 H       1  UNL1        0.2104
     10 N          62.4988   91.2420   11.8719 N.3     1  UNL1       -0.2887
     11 H          63.0930   91.2941   11.0445 H       1  UNL1        0.1237
     12 C          63.4117   91.2528   13.0620 C.3     1  UNL1        0.0958
     13 C          66.7700   92.6310   11.4581 C.ar    1  UNL1       -0.0231
     14 C          67.7462   92.3540   12.5628 C.ar    1  UNL1       -0.0043
     15 C          67.2776   91.7099   13.8339 C.ar    1  UNL1       -0.0006
     16 C          65.8328   91.3429   14.0003 C.ar    1  UNL1       -0.0029
     17 C          64.8566   91.6199   12.8956 C.ar    1  UNL1       -0.0067
     18 C          65.3252   92.2639   11.6246 C.ar    1  UNL1       -0.0072
     19 C          68.1051   92.0840    9.9031 C.3     1  UNL1        0.0044
     20 C          67.2386   93.2750   10.1871 C.3     1  UNL1        0.0189
     21 C          66.3722   94.4660   10.4711 C.3     1  UNL1        0.0044
     22 C          67.7073   93.9190    8.9160 C.3     1  UNL1        0.0044
     23 C          61.5068   86.5527    9.8653 C.3     1  UNL1        0.0342
     24 C          62.3581   85.5007   10.5122 C.ar    1  UNL1       -0.0166
     25 C          63.0837   84.4976    9.6651 C.ar    1  UNL1        0.0268
     26 C          63.9351   83.4456   10.3120 C.ar    1  UNL1        0.1556
     27 F          64.6606   82.4426    9.4650 F       1  UNL1       -0.2028
     28 C          64.0609   83.3967   11.8059 C.ar    1  UNL1        0.1037
     29 N          64.9122   82.3447   12.4528 N.pl3   1  UNL1       -0.3529
     30 C          63.3353   84.3997   12.6530 C.ar    1  UNL1        0.1536
     31 C          62.4839   85.4517   12.0061 C.ar    1  UNL1        0.0341
     32 H          65.3884   81.6863   11.8969 H       1  UNL1        0.1425
     33 H          64.9948   82.3125   13.4333 H       1  UNL1        0.1425
     34 O          63.4611   84.3507   14.1469 O.3     1  UNL1       -0.4653
     35 C          64.4784   85.2061   14.8423 C.3     1  UNL1        0.3082
     36 C          64.0485   86.4562   15.5512 C.3     1  UNL1        0.4380
     37 F          63.6187   87.7063   16.2601 F       1  UNL1       -0.1663
     38 F          64.5924   87.2826   14.4237 F       1  UNL1       -0.1663
     39 F          63.5047   85.6298   16.6787 F       1  UNL1       -0.1663
@<TRIPOS>UNITY_ATOM_ATTR
3 1
charge 1
4 1
charge -1
@<TRIPOS>BOND
     1    19    20    1
     2    20    21    1
     3    20    22    1
     4    20    13    1
     5    13    14   ar
     6    14    15   ar
     7    15    16   ar
     8    16    17   ar
     9    17    12    1
    10    12    10    1
    11     1    10    1
    12     1     2    1
    13     2     3    1
    14     3     4    2
    15     3     5    1
    16     5     6    1
    17     6    23    1
    18    23    24    1
    19    24    25   ar
    20    25    26   ar
    21    26    27    1
    22    26    28   ar
    23    28    29    1
    24    28    30   ar
    25    30    34    1
    26    34    35    1
    27    35    36    1
    28    36    37    1
    29    36    38    1
    30    36    39    1
    31    30    31   ar
    32     6     7    1
    33     7     8    1
    34    17    18   ar
    35    18    13   ar
    36     7     1    1
    37    31    24   ar
    38    10    11    1
    39    29    32    1
    40    29    33    1
    41     8     9    1
