@<TRIPOS>MOLECULE
*****
 37 42 0 0 0
SMALL
GASTEIGER

@<TRIPOS>ATOM
      1 C          63.1034   85.7151   12.7138 C.2     1  UNL1        0.4243
      2 N          62.3420   86.5994   11.7713 N.2     1  UNL1        0.0275
      3 C          62.5261   88.0871   11.8248 C.2     1  UNL1        0.3991
      4 N          61.9169   89.2030   11.0289 N.2     1  UNL1        0.0826
      5 N          62.4859   90.4962   11.5329 N.2     1  UNL1       -0.0375
      6 C          63.4467   90.1794   12.6403 C.2     1  UNL1        0.1283
      7 C          63.4716   88.6905   12.8207 C.3     1  UNL1        0.2504
      8 C          64.2330   87.8062   13.7632 C.2     1  UNL1        0.3055
      9 O          65.1785   88.4096   14.7591 O.2     1  UNL1       -0.2554
     10 N          64.0489   86.3185   13.7097 N.am    1  UNL1       -0.1358
     11 C          64.8104   85.4342   14.6522 C.3     1  UNL1        0.2167
     12 C          62.6276   77.7518   10.8778 C.3     1  UNL1        0.0335
     13 C          62.5017   78.9593   11.7587 C.3     1  UNL1        0.1294
     14 O          62.0341   78.9659   13.1840 O.3     1  UNL1       -0.3548
     15 C          62.0647   80.3830   13.6752 C.3     1  UNL1        0.1435
     16 C          62.5512   81.2520   12.5536 C.3     1  UNL1        0.0490
     17 C          62.2383   82.0016   13.8145 C.3     1  UNL1        0.0444
     18 C          62.4224   83.4893   13.8679 C.3     1  UNL1        0.1682
     19 N          62.9193   84.2274   12.6603 N.pl3   1  UNL1       -0.1900
     20 C          63.2322   83.4777   11.3993 C.3     1  UNL1        0.1682
     21 C          63.0481   81.9901   11.3460 C.3     1  UNL1        0.0444
     22 C          62.8212   80.3721   11.3691 C.3     1  UNL1        0.0808
     23 N          63.3228   80.8255   10.0301 N.3     1  UNL1       -0.3202
     24 H          63.4560   81.8367   10.0416 H       1  UNL1        0.1189
     25 H          62.6419   80.5804    9.3112 H       1  UNL1        0.1189
     26 C          64.2430   91.1765   13.4289 C.ar    1  UNL1        0.0333
     27 C          64.1238   91.2177   14.9236 C.ar    1  UNL1        0.0229
     28 C          64.9200   92.2148   15.7122 C.ar    1  UNL1        0.1004
     29 N          65.8353   93.1707   15.0062 N.ar    1  UNL1       -0.2285
     30 C          65.9545   93.1294   13.5115 C.ar    1  UNL1        0.1391
     31 C          65.1583   92.1323   12.7229 C.ar    1  UNL1        0.0902
     32 CL         65.2775   92.0911   11.2282 Cl      1  UNL1       -0.0793
     33 N          66.8698   94.0852   12.8054 N.pl3   1  UNL1       -0.3191
     34 H          67.8397   94.0512   12.9709 H       1  UNL1        0.1482
     35 C          66.3074   95.0928   11.8470 C.3     1  UNL1        0.0705
     36 C          66.0145   96.5186   11.4846 C.3     1  UNL1        0.0212
     37 C          65.6261   95.4120   10.5493 C.3     1  UNL1        0.0212
@<TRIPOS>BOND
     1    13    12    1
     2    13    14    1
     3    14    15    1
     4    15    16    1
     5    16    17    1
     6    17    18    1
     7    18    19    1
     8    19     1    1
     9     1     2    2
    10     2     3    1
    11     3     4    2
    12     4     5    1
    13     5     6    2
    14     6    26    1
    15    26    27   ar
    16    27    28   ar
    17    28    29   ar
    18    29    30   ar
    19    30    33    1
    20    33    35    1
    21    35    36    1
    22    36    37    1
    23    30    31   ar
    24    31    32    1
    25     6     7    1
    26     7     8    1
    27     8     9    2
    28     8    10   am
    29    10    11    1
    30    19    20    1
    31    20    21    1
    32    16    22    1
    33    22    23    1
    34    22    13    1
    35    21    16    1
    36    10     1    1
    37     7     3    1
    38    31    26   ar
    39    37    35    1
    40    33    34    1
    41    23    24    1
    42    23    25    1
@<TRIPOS>MOLECULE
*****
 37 42 0 0 0
SMALL
GASTEIGER

@<TRIPOS>ATOM
      1 C          71.7500   76.5988   13.3813 C.2     1  UNL1        0.4243
      2 N          70.6897   76.6022   14.4423 N.2     1  UNL1        0.0275
      3 C          70.3620   75.3374   15.1792 C.2     1  UNL1        0.3991
      4 N          69.3736   75.0366   16.2665 N.2     1  UNL1        0.0826
      5 N          69.4953   73.5826   16.6144 N.2     1  UNL1       -0.0375
      6 C          70.5590   72.9848   15.7420 C.2     1  UNL1        0.1283
      7 C          71.0946   74.0692   14.8550 C.3     1  UNL1        0.2504
      8 C          72.1549   74.0659   13.7940 C.2     1  UNL1        0.3055
      9 O          72.8876   72.7978   13.4698 O.2     1  UNL1       -0.2554
     10 N          72.4826   75.3307   13.0571 N.am    1  UNL1       -0.1358
     11 C          73.5429   75.3274   11.9960 C.3     1  UNL1        0.2167
     12 C          72.6443   82.8367    8.1564 C.3     1  UNL1        0.0335
     13 C          72.8428   82.0977    9.4464 C.3     1  UNL1        0.1294
     14 O          73.6317   82.5813   10.6271 O.3     1  UNL1       -0.3548
     15 C          73.5638   81.5277   11.6928 C.3     1  UNL1        0.1435
     16 C          72.7330   80.3931   11.1708 C.3     1  UNL1        0.0490
     17 C          73.2523   80.1795   12.5616 C.3     1  UNL1        0.0444
     18 C          72.9246   78.9147   13.2985 C.3     1  UNL1        0.1682
     19 N          72.0776   77.8636   12.6444 N.pl3   1  UNL1       -0.1900
     20 C          71.5583   78.0773   11.2535 C.3     1  UNL1        0.1682
     21 C          71.8860   79.3421   10.5167 C.3     1  UNL1        0.0444
     22 C          72.2874   80.7455    9.7824 C.3     1  UNL1        0.0808
     23 N          71.4360   79.8948    8.8873 N.3     1  UNL1       -0.3202
     24 H          71.1995   79.0266    9.3676 H       1  UNL1        0.1189
     25 H          71.9493   79.6813    8.0321 H       1  UNL1        0.1189
     26 C          71.0081   71.5536   15.7545 C.ar    1  UNL1        0.0333
     27 C          71.7574   71.0130   16.9362 C.ar    1  UNL1        0.0229
     28 C          72.2065   69.5819   16.9488 C.ar    1  UNL1        0.1004
     29 N          71.9064   68.6913   15.7797 N.ar    1  UNL1       -0.2285
     30 C          71.1571   69.2319   14.5980 C.ar    1  UNL1        0.1391
     31 C          70.7079   70.6630   14.5854 C.ar    1  UNL1        0.0902
     32 CL         69.9586   71.2036   13.4038 Cl      1  UNL1       -0.0793
     33 N          70.8568   68.3414   13.4289 N.pl3   1  UNL1       -0.3191
     34 H          71.4935   67.6362   13.1711 H       1  UNL1        0.1482
     35 C          69.5865   68.5254   12.6527 C.3     1  UNL1        0.0705
     36 C          68.0999   68.7230   12.6220 C.3     1  UNL1        0.0212
     37 C          68.8730   68.6465   11.3389 C.3     1  UNL1        0.0212
@<TRIPOS>BOND
     1    13    12    1
     2    13    14    1
     3    14    15    1
     4    15    16    1
     5    16    17    1
     6    17    18    1
     7    18    19    1
     8    19     1    1
     9     1     2    2
    10     2     3    1
    11     3     4    2
    12     4     5    1
    13     5     6    2
    14     6    26    1
    15    26    27   ar
    16    27    28   ar
    17    28    29   ar
    18    29    30   ar
    19    30    33    1
    20    33    35    1
    21    35    36    1
    22    36    37    1
    23    30    31   ar
    24    31    32    1
    25     6     7    1
    26     7     8    1
    27     8     9    2
    28     8    10   am
    29    10    11    1
    30    19    20    1
    31    20    21    1
    32    16    22    1
    33    22    23    1
    34    22    13    1
    35    21    16    1
    36    10     1    1
    37     7     3    1
    38    31    26   ar
    39    37    35    1
    40    33    34    1
    41    23    24    1
    42    23    25    1
@<TRIPOS>MOLECULE
*****
 37 42 0 0 0
SMALL
GASTEIGER

@<TRIPOS>ATOM
      1 C          71.4456   77.3641   12.9165 C.2     1  UNL1        0.4243
      2 N          70.1811   77.4605   13.7176 N.2     1  UNL1        0.0275
      3 C          69.8393   76.3901   14.7113 C.2     1  UNL1        0.3991
      4 N          68.6722   76.2159   15.6373 N.2     1  UNL1        0.0826
      5 N          68.8736   74.9415   16.4022 N.2     1  UNL1       -0.0375
      6 C          70.1652   74.3280   15.9490 C.2     1  UNL1        0.1283
      7 C          70.7620   75.2233   14.9040 C.3     1  UNL1        0.2504
      8 C          72.0266   75.1269   14.1029 C.2     1  UNL1        0.3055
      9 O          72.9493   73.9601   14.2955 O.2     1  UNL1       -0.2554
     10 N          72.3683   76.1972   13.1092 N.am    1  UNL1       -0.1358
     11 C          73.6329   76.1008   12.3080 C.3     1  UNL1        0.2167
     12 C          73.4541   81.9544    6.4430 C.3     1  UNL1        0.0335
     13 C          73.0800   81.7011    7.8733 C.3     1  UNL1        0.1294
     14 O          72.9140   82.7436    8.9391 O.3     1  UNL1       -0.3548
     15 C          72.5376   82.0477   10.2135 C.3     1  UNL1        0.1435
     16 C          72.4710   80.5752    9.9354 C.3     1  UNL1        0.0490
     17 C          72.1564   80.9428   11.3552 C.3     1  UNL1        0.0444
     18 C          71.8146   79.8724   12.3489 C.3     1  UNL1        0.1682
     19 N          71.7874   78.4345   11.9228 N.pl3   1  UNL1       -0.1900
     20 C          72.1021   78.0669   10.5030 C.3     1  UNL1        0.1682
     21 C          72.4439   79.1373    9.5093 C.3     1  UNL1        0.0444
     22 C          72.8063   80.3610    8.4890 C.3     1  UNL1        0.0808
     23 N          72.8585   79.0389    7.7826 N.3     1  UNL1       -0.3202
     24 H          72.6290   78.2931    8.4395 H       1  UNL1        0.1189
     25 H          73.7967   78.8885    7.4116 H       1  UNL1        0.1189
     26 C          70.7561   73.0445   16.4525 C.ar    1  UNL1        0.0333
     27 C          71.2659   72.9550   17.8603 C.ar    1  UNL1        0.0229
     28 C          71.8568   71.6716   18.3639 C.ar    1  UNL1        0.1004
     29 N          71.9380   70.4776   17.4596 N.ar    1  UNL1       -0.2285
     30 C          71.4283   70.5671   16.0517 C.ar    1  UNL1        0.1391
     31 C          70.8374   71.8506   15.5481 C.ar    1  UNL1        0.0902
     32 CL         70.3277   71.9400   14.1402 Cl      1  UNL1       -0.0793
     33 N          71.5095   69.3732   15.1473 N.pl3   1  UNL1       -0.3191
     34 H          70.8405   68.6546   15.2194 H       1  UNL1        0.1482
     35 C          72.6101   69.2742   14.1329 C.3     1  UNL1        0.0705
     36 C          73.4937   69.9205   13.1074 C.3     1  UNL1        0.0212
     37 C          73.6329   68.4562   13.4015 C.3     1  UNL1        0.0212
@<TRIPOS>BOND
     1    13    12    1
     2    13    14    1
     3    14    15    1
     4    15    16    1
     5    16    17    1
     6    17    18    1
     7    18    19    1
     8    19     1    1
     9     1     2    2
    10     2     3    1
    11     3     4    2
    12     4     5    1
    13     5     6    2
    14     6    26    1
    15    26    27   ar
    16    27    28   ar
    17    28    29   ar
    18    29    30   ar
    19    30    33    1
    20    33    35    1
    21    35    36    1
    22    36    37    1
    23    30    31   ar
    24    31    32    1
    25     6     7    1
    26     7     8    1
    27     8     9    2
    28     8    10   am
    29    10    11    1
    30    19    20    1
    31    20    21    1
    32    16    22    1
    33    22    23    1
    34    22    13    1
    35    21    16    1
    36    10     1    1
    37     7     3    1
    38    31    26   ar
    39    37    35    1
    40    33    34    1
    41    23    24    1
    42    23    25    1
