@<TRIPOS>MOLECULE
*****
 23 26 0 0 0
SMALL
GASTEIGER

@<TRIPOS>ATOM
      1 N          63.5094   88.7656   12.9810 N.3     1  UNL1       -0.2644
      2 C          63.0566   90.0466   12.3454 C.3     1  UNL1        0.0774
      3 C          62.1638   90.0113   11.1405 C.3     1  UNL1        0.0439
      4 C          61.7238   88.6952   10.5714 C.ar    1  UNL1       -0.0169
      5 C          62.1765   87.4142   11.2070 C.ar    1  UNL1        0.0195
      6 S          61.5845   86.2763   10.4294 S.2     1  UNL1       -0.0902
      7 C          60.7658   86.8541    9.3131 C.ar    1  UNL1        0.0290
      8 C          59.9532   86.2120    8.2281 C.ar    1  UNL1        0.0088
      9 C          59.2266   87.0649    7.2308 C.ar    1  UNL1        0.0301
     10 C          59.3127   88.5598    7.3185 C.ar    1  UNL1        0.1402
     11 F          58.5861   89.4128    6.3212 F       1  UNL1       -0.2042
     12 C          60.1254   89.2019    8.4036 C.ar    1  UNL1        0.0298
     13 C          60.8519   88.3490    9.4008 C.ar    1  UNL1        0.0045
     14 C          63.0693   87.4494   12.4118 C.3     1  UNL1        0.1056
     15 C          64.4022   88.8008   14.1859 C.3     1  UNL1        0.1011
     16 C          65.9828   92.2462   15.3610 C.ar    1  UNL1        0.1575
     17 C          65.0086   92.6566   16.4252 C.ar    1  UNL1        0.1356
     18 N          63.8323   91.7818   16.7430 N.ar    1  UNL1       -0.2394
     19 C          63.6302   90.4965   15.9965 C.ar    1  UNL1        0.0961
     20 C          64.6043   90.0860   14.9323 C.ar    1  UNL1        0.0161
     21 C          65.7807   90.9609   14.6146 C.ar    1  UNL1        0.0371
     22 C          68.4181   93.0073   15.8507 C.3     1  UNL1        0.2525
     23 O          67.1590   93.1210   15.0432 O.3     1  UNL1       -0.4699
@<TRIPOS>BOND
     1    22    23    1
     2    23    16    1
     3    16    17   ar
     4    17    18   ar
     5    18    19   ar
     6    19    20   ar
     7    20    15    1
     8    15     1    1
     9     1     2    1
    10     2     3    1
    11     3     4    1
    12     4     5   ar
    13     5     6   ar
    14     6     7   ar
    15     7     8   ar
    16     8     9   ar
    17     9    10   ar
    18    10    11    1
    19    10    12   ar
    20    12    13   ar
    21     5    14    1
    22    20    21   ar
    23    21    16   ar
    24    14     1    1
    25    13     4   ar
    26    13     7   ar
@<TRIPOS>MOLECULE
*****
 23 26 0 0 0
SMALL
GASTEIGER

@<TRIPOS>ATOM
      1 N          63.5134   88.9294   13.4421 N.3     1  UNL1       -0.2644
      2 C          64.2100   88.1940   14.5483 C.3     1  UNL1        0.0774
      3 C          64.2871   86.6963   14.5210 C.3     1  UNL1        0.0439
      4 C          63.6677   85.9339   13.3873 C.ar    1  UNL1       -0.0169
      5 C          62.9711   86.6694   12.2810 C.ar    1  UNL1        0.0195
      6 S          62.4581   85.6556   11.3017 S.2     1  UNL1       -0.0902
      7 C          62.8376   84.2936   11.8027 C.ar    1  UNL1        0.0290
      8 C          62.5991   82.9191   11.2517 C.ar    1  UNL1        0.0088
      9 C          63.1081   81.7165   11.9897 C.ar    1  UNL1        0.0301
     10 C          63.8556   81.8885   13.2788 C.ar    1  UNL1        0.1402
     11 F          64.3646   80.6859   14.0168 F       1  UNL1       -0.2042
     12 C          64.0942   83.2631   13.8297 C.ar    1  UNL1        0.0298
     13 C          63.5852   84.4656   13.0917 C.ar    1  UNL1        0.0045
     14 C          62.8940   88.1671   12.3084 C.3     1  UNL1        0.1056
     15 C          63.4363   90.4272   13.4694 C.3     1  UNL1        0.1011
     16 C          66.8439   92.4260   13.0914 C.ar    1  UNL1        0.1575
     17 C          66.7473   92.8841   11.6663 C.ar    1  UNL1        0.1356
     18 N          65.5470   92.5232   10.8422 N.ar    1  UNL1       -0.2394
     19 C          64.4433   91.7042   11.4433 C.ar    1  UNL1        0.0961
     20 C          64.5399   91.2462   12.8683 C.ar    1  UNL1        0.0161
     21 C          65.7403   91.6071   13.6924 C.ar    1  UNL1        0.0371
     22 C          67.8657   93.3417   15.2976 C.3     1  UNL1        0.2525
     23 O          68.0442   92.7869   13.9154 O.3     1  UNL1       -0.4699
@<TRIPOS>BOND
     1    22    23    1
     2    23    16    1
     3    16    17   ar
     4    17    18   ar
     5    18    19   ar
     6    19    20   ar
     7    20    15    1
     8    15     1    1
     9     1     2    1
    10     2     3    1
    11     3     4    1
    12     4     5   ar
    13     5     6   ar
    14     6     7   ar
    15     7     8   ar
    16     8     9   ar
    17     9    10   ar
    18    10    11    1
    19    10    12   ar
    20    12    13   ar
    21     5    14    1
    22    20    21   ar
    23    21    16   ar
    24    14     1    1
    25    13     4   ar
    26    13     7   ar
@<TRIPOS>MOLECULE
*****
 23 26 0 0 0
SMALL
GASTEIGER

@<TRIPOS>ATOM
      1 N          63.5853   88.6014   13.2824 N.3     1  UNL1       -0.2644
      2 C          64.2516   87.9187   14.4399 C.3     1  UNL1        0.0774
      3 C          64.2879   86.4207   14.5074 C.3     1  UNL1        0.0439
      4 C          63.6578   85.6053   13.4173 C.ar    1  UNL1       -0.0169
      5 C          62.9915   86.2880   12.2598 C.ar    1  UNL1        0.0195
      6 S          62.4596   85.2287   11.3406 S.2     1  UNL1       -0.0902
      7 C          62.7971   83.8913   11.9301 C.ar    1  UNL1        0.0290
      8 C          62.5258   82.4917   11.4639 C.ar    1  UNL1        0.0088
      9 C          62.9951   81.3248   12.2813 C.ar    1  UNL1        0.0301
     10 C          63.7357   81.5575   13.5648 C.ar    1  UNL1        0.1402
     11 F          64.2050   80.3906   14.3821 F       1  UNL1       -0.2042
     12 C          64.0070   82.9572   14.0309 C.ar    1  UNL1        0.0298
     13 C          63.5377   84.1240   13.2136 C.ar    1  UNL1        0.0045
     14 C          62.9552   87.7860   12.1923 C.3     1  UNL1        0.1056
     15 C          63.5490   90.0995   13.2148 C.3     1  UNL1        0.1011
     16 C          66.6066   92.2044   14.6186 C.ar    1  UNL1        0.1575
     17 C          66.1119   92.5398   15.9944 C.ar    1  UNL1        0.1356
     18 N          64.7630   92.0618   16.4437 N.ar    1  UNL1       -0.2394
     19 C          63.9086   91.2483   15.5172 C.ar    1  UNL1        0.0961
     20 C          64.4033   90.9129   14.1414 C.ar    1  UNL1        0.0161
     21 C          65.7523   91.3909   13.6921 C.ar    1  UNL1        0.0371
     22 C          69.0756   92.8055   15.1594 C.3     1  UNL1        0.2525
     23 O          67.9555   92.6824   14.1694 O.3     1  UNL1       -0.4699
@<TRIPOS>BOND
     1    22    23    1
     2    23    16    1
     3    16    17   ar
     4    17    18   ar
     5    18    19   ar
     6    19    20   ar
     7    20    15    1
     8    15     1    1
     9     1     2    1
    10     2     3    1
    11     3     4    1
    12     4     5   ar
    13     5     6   ar
    14     6     7   ar
    15     7     8   ar
    16     8     9   ar
    17     9    10   ar
    18    10    11    1
    19    10    12   ar
    20    12    13   ar
    21     5    14    1
    22    20    21   ar
    23    21    16   ar
    24    14     1    1
    25    13     4   ar
    26    13     7   ar
@<TRIPOS>MOLECULE
*****
 23 26 0 0 0
SMALL
GASTEIGER

@<TRIPOS>ATOM
      1 N          63.8159   88.5843   14.0486 N.3     1  UNL1       -0.2644
      2 C          63.2871   88.3255   12.6689 C.3     1  UNL1        0.0774
      3 C          63.1332   86.9169   12.1768 C.3     1  UNL1        0.0439
      4 C          63.5080   85.7672   13.0642 C.ar    1  UNL1       -0.0169
      5 C          64.0368   86.0260   14.4439 C.ar    1  UNL1        0.0195
      6 S          64.3215   84.7012   15.0872 S.2     1  UNL1       -0.0902
      7 C          63.9687   83.6236   14.1052 C.ar    1  UNL1        0.0290
      8 C          64.0403   82.1277   14.1880 C.ar    1  UNL1        0.0088
      9 C          63.6091   81.2905   13.0204 C.ar    1  UNL1        0.0301
     10 C          63.1064   81.9492   11.7701 C.ar    1  UNL1        0.1402
     11 F          62.6752   81.1120   10.6025 F       1  UNL1       -0.2042
     12 C          63.0348   83.4452   11.6874 C.ar    1  UNL1        0.0298
     13 C          63.4659   84.2824   12.8549 C.ar    1  UNL1        0.0045
     14 C          64.1907   87.4345   14.9360 C.3     1  UNL1        0.1056
     15 C          63.9698   89.9929   14.5408 C.3     1  UNL1        0.1011
     16 C          67.1542   92.1847   13.6435 C.ar    1  UNL1        0.1575
     17 C          66.6952   92.8468   12.3782 C.ar    1  UNL1        0.1356
     18 N          65.3278   92.5577   11.8338 N.ar    1  UNL1       -0.2394
     19 C          64.4193   91.6063   12.5547 C.ar    1  UNL1        0.0961
     20 C          64.8782   90.9442   13.8199 C.ar    1  UNL1        0.0161
     21 C          66.2458   91.2334   14.3644 C.ar    1  UNL1        0.0371
     22 C          68.7388   92.5465   15.6704 C.3     1  UNL1        0.2525
     23 O          68.5217   92.4739   14.1879 O.3     1  UNL1       -0.4699
@<TRIPOS>BOND
     1    22    23    1
     2    23    16    1
     3    16    17   ar
     4    17    18   ar
     5    18    19   ar
     6    19    20   ar
     7    20    15    1
     8    15     1    1
     9     1     2    1
    10     2     3    1
    11     3     4    1
    12     4     5   ar
    13     5     6   ar
    14     6     7   ar
    15     7     8   ar
    16     8     9   ar
    17     9    10   ar
    18    10    11    1
    19    10    12   ar
    20    12    13   ar
    21     5    14    1
    22    20    21   ar
    23    21    16   ar
    24    14     1    1
    25    13     4   ar
    26    13     7   ar
@<TRIPOS>MOLECULE
*****
 23 26 0 0 0
SMALL
GASTEIGER

@<TRIPOS>ATOM
      1 N          63.2142   89.3548   13.3180 N.3     1  UNL1       -0.2644
      2 C          63.5578   87.9268   13.0136 C.3     1  UNL1        0.0774
      3 C          62.9319   87.2394   11.8365 C.3     1  UNL1        0.0439
      4 C          61.9624   87.9800   10.9638 C.ar    1  UNL1       -0.0169
      5 C          61.6188   89.4080   11.2682 C.ar    1  UNL1        0.0195
      6 S          60.6366   89.8784   10.2368 S.2     1  UNL1       -0.0902
      7 C          60.3731   88.7411    9.2948 C.ar    1  UNL1        0.0290
      8 C          59.4930   88.6224    8.0861 C.ar    1  UNL1        0.0088
      9 C          59.4322   87.3303    7.3266 C.ar    1  UNL1        0.0301
     10 C          60.2516   86.1570    7.7759 C.ar    1  UNL1        0.1402
     11 F          60.1908   84.8649    7.0164 F       1  UNL1       -0.2042
     12 C          61.1317   86.2758    8.9847 C.ar    1  UNL1        0.0298
     13 C          61.1925   87.5678    9.7442 C.ar    1  UNL1        0.0045
     14 C          62.2447   90.0954   12.4454 C.3     1  UNL1        0.1056
     15 C          63.8401   90.0423   14.4952 C.3     1  UNL1        0.1011
     16 C          65.9162   92.8964   12.6802 C.ar    1  UNL1        0.1575
     17 C          66.5433   93.5829   13.8572 C.ar    1  UNL1        0.1356
     18 N          66.2694   93.0893   15.2469 N.ar    1  UNL1       -0.2394
     19 C          65.3683   91.9090   15.4596 C.ar    1  UNL1        0.0961
     20 C          64.7412   91.2225   14.2826 C.ar    1  UNL1        0.0161
     21 C          65.0151   91.7162   12.8928 C.ar    1  UNL1        0.0371
     22 C          66.0177   94.8438   10.9634 C.3     1  UNL1        0.2525
     23 O          66.1901   93.3900   11.2905 O.3     1  UNL1       -0.4699
@<TRIPOS>BOND
     1    22    23    1
     2    23    16    1
     3    16    17   ar
     4    17    18   ar
     5    18    19   ar
     6    19    20   ar
     7    20    15    1
     8    15     1    1
     9     1     2    1
    10     2     3    1
    11     3     4    1
    12     4     5   ar
    13     5     6   ar
    14     6     7   ar
    15     7     8   ar
    16     8     9   ar
    17     9    10   ar
    18    10    11    1
    19    10    12   ar
    20    12    13   ar
    21     5    14    1
    22    20    21   ar
    23    21    16   ar
    24    14     1    1
    25    13     4   ar
    26    13     7   ar
@<TRIPOS>MOLECULE
*****
 23 26 0 0 0
SMALL
GASTEIGER

@<TRIPOS>ATOM
      1 N          62.3556   88.1031   11.1147 N.3     1  UNL1       -0.2644
      2 C          61.8225   87.1240   10.1112 C.3     1  UNL1        0.0774
      3 C          61.9471   85.6504   10.3618 C.3     1  UNL1        0.0439
      4 C          62.6049   85.1559   11.6159 C.ar    1  UNL1       -0.0169
      5 C          63.1380   86.1350   12.6194 C.ar    1  UNL1        0.0195
      6 S          63.7324   85.3568   13.7556 S.2     1  UNL1       -0.0902
      7 C          63.5666   83.8967   13.4544 C.ar    1  UNL1        0.0290
      8 C          63.9601   82.6644   14.2135 C.ar    1  UNL1        0.0088
      9 C          63.6567   81.3077   13.6501 C.ar    1  UNL1        0.0301
     10 C          62.9599   81.1834   12.3276 C.ar    1  UNL1        0.1402
     11 F          62.6565   79.8268   11.7642 F       1  UNL1       -0.2042
     12 C          62.5664   82.4159   11.5686 C.ar    1  UNL1        0.0298
     13 C          62.8697   83.7725   12.1320 C.ar    1  UNL1        0.0045
     14 C          63.0134   87.6086   12.3687 C.3     1  UNL1        0.1056
     15 C          62.2310   89.5768   10.8641 C.3     1  UNL1        0.1011
     16 C          65.0428   92.3642   11.1369 C.ar    1  UNL1        0.1575
     17 C          65.2427   92.4207   12.6224 C.ar    1  UNL1        0.1356
     18 N          64.4388   91.5292   13.5219 N.ar    1  UNL1       -0.2394
     19 C          63.4349   90.5812   12.9357 C.ar    1  UNL1        0.0961
     20 C          63.2349   90.5248   11.4502 C.ar    1  UNL1        0.0161
     21 C          64.0389   91.4163   10.5508 C.ar    1  UNL1        0.0371
     22 C          66.4326   94.5289   10.7722 C.3     1  UNL1        0.2525
     23 O          65.8467   93.2557   10.2375 O.3     1  UNL1       -0.4699
@<TRIPOS>BOND
     1    22    23    1
     2    23    16    1
     3    16    17   ar
     4    17    18   ar
     5    18    19   ar
     6    19    20   ar
     7    20    15    1
     8    15     1    1
     9     1     2    1
    10     2     3    1
    11     3     4    1
    12     4     5   ar
    13     5     6   ar
    14     6     7   ar
    15     7     8   ar
    16     8     9   ar
    17     9    10   ar
    18    10    11    1
    19    10    12   ar
    20    12    13   ar
    21     5    14    1
    22    20    21   ar
    23    21    16   ar
    24    14     1    1
    25    13     4   ar
    26    13     7   ar
@<TRIPOS>MOLECULE
*****
 23 26 0 0 0
SMALL
GASTEIGER

@<TRIPOS>ATOM
      1 N          63.3473   88.9810   13.0771 N.3     1  UNL1       -0.2644
      2 C          62.7355   88.4669   11.8077 C.3     1  UNL1        0.0774
      3 C          62.6820   86.9911   11.5449 C.3     1  UNL1        0.0439
      4 C          63.2402   86.0294   12.5517 C.ar    1  UNL1       -0.0169
      5 C          63.8519   86.5434   13.8211 C.ar    1  UNL1        0.0195
      6 S          64.3181   85.3638   14.6218 S.2     1  UNL1       -0.0902
      7 C          63.9944   84.1207   13.8473 C.ar    1  UNL1        0.0290
      8 C          64.2202   82.6674   14.1418 C.ar    1  UNL1        0.0088
      9 C          63.7799   81.6253   13.1568 C.ar    1  UNL1        0.0301
     10 C          63.1138   82.0366   11.8774 C.ar    1  UNL1        0.1402
     11 F          62.6734   80.9945   10.8924 F       1  UNL1       -0.2042
     12 C          62.8879   83.4900   11.5829 C.ar    1  UNL1        0.0298
     13 C          63.3283   84.5320   12.5678 C.ar    1  UNL1        0.0045
     14 C          63.9055   88.0193   14.0838 C.3     1  UNL1        0.1056
     15 C          63.4008   90.4569   13.3398 C.3     1  UNL1        0.1011
     16 C          66.5007   92.7991   12.5307 C.ar    1  UNL1        0.1575
     17 C          67.3757   92.5320   13.7194 C.ar    1  UNL1        0.1356
     18 N          66.9258   91.5732   14.7815 N.ar    1  UNL1       -0.2394
     19 C          65.6008   90.8814   14.6551 C.ar    1  UNL1        0.0961
     20 C          64.7258   91.1486   13.4664 C.ar    1  UNL1        0.0161
     21 C          65.1757   92.1074   12.4042 C.ar    1  UNL1        0.0371
     22 C          66.2217   95.0539   11.2706 C.3     1  UNL1        0.2525
     23 O          66.9506   93.7579   11.4686 O.3     1  UNL1       -0.4699
@<TRIPOS>BOND
     1    22    23    1
     2    23    16    1
     3    16    17   ar
     4    17    18   ar
     5    18    19   ar
     6    19    20   ar
     7    20    15    1
     8    15     1    1
     9     1     2    1
    10     2     3    1
    11     3     4    1
    12     4     5   ar
    13     5     6   ar
    14     6     7   ar
    15     7     8   ar
    16     8     9   ar
    17     9    10   ar
    18    10    11    1
    19    10    12   ar
    20    12    13   ar
    21     5    14    1
    22    20    21   ar
    23    21    16   ar
    24    14     1    1
    25    13     4   ar
    26    13     7   ar
@<TRIPOS>MOLECULE
*****
 23 26 0 0 0
SMALL
GASTEIGER

@<TRIPOS>ATOM
      1 N          62.3556   88.3229   11.3756 N.3     1  UNL1       -0.2644
      2 C          62.4452   89.3290   10.2666 C.3     1  UNL1        0.0774
      3 C          63.2502   90.5808   10.4530 C.3     1  UNL1        0.0439
      4 C          63.9656   90.8266   11.7484 C.ar    1  UNL1       -0.0169
      5 C          63.8760   89.8205   12.8573 C.ar    1  UNL1        0.0195
      6 S          64.6831   90.3320   14.0135 S.2     1  UNL1       -0.0902
      7 C          65.2716   91.6542   13.6192 C.ar    1  UNL1        0.0290
      8 C          66.1539   92.6193   14.3541 C.ar    1  UNL1        0.0088
      9 C          66.5928   93.8901   13.6889 C.ar    1  UNL1        0.0301
     10 C          66.1494   94.1958   12.2890 C.ar    1  UNL1        0.1402
     11 F          66.5884   95.4666   11.6238 F       1  UNL1       -0.2042
     12 C          65.2671   93.2307   11.5541 C.ar    1  UNL1        0.0298
     13 C          64.8282   91.9599   12.2192 C.ar    1  UNL1        0.0045
     14 C          63.0710   88.5687   12.6709 C.3     1  UNL1        0.1056
     15 C          61.5506   87.0710   11.1892 C.3     1  UNL1        0.1011
     16 C          63.1176   83.5565   12.1601 C.ar    1  UNL1        0.1575
     17 C          63.6258   83.0946   10.8265 C.ar    1  UNL1        0.1356
     18 N          63.4423   83.9581    9.6139 N.ar    1  UNL1       -0.2394
     19 C          62.7505   85.2836    9.7347 C.ar    1  UNL1        0.0961
     20 C          62.2423   85.7455   11.0683 C.ar    1  UNL1        0.0161
     21 C          62.4259   84.8819   12.2810 C.ar    1  UNL1        0.0371
     22 C          62.3656   82.8272   14.5376 C.3     1  UNL1        0.2525
     23 O          63.3011   82.6929   13.3727 O.3     1  UNL1       -0.4699
@<TRIPOS>BOND
     1    22    23    1
     2    23    16    1
     3    16    17   ar
     4    17    18   ar
     5    18    19   ar
     6    19    20   ar
     7    20    15    1
     8    15     1    1
     9     1     2    1
    10     2     3    1
    11     3     4    1
    12     4     5   ar
    13     5     6   ar
    14     6     7   ar
    15     7     8   ar
    16     8     9   ar
    17     9    10   ar
    18    10    11    1
    19    10    12   ar
    20    12    13   ar
    21     5    14    1
    22    20    21   ar
    23    21    16   ar
    24    14     1    1
    25    13     4   ar
    26    13     7   ar
@<TRIPOS>MOLECULE
*****
 23 26 0 0 0
SMALL
GASTEIGER

@<TRIPOS>ATOM
      1 N          62.2467   88.6982   11.3385 N.3     1  UNL1       -0.2644
      2 C          62.3931   89.6103   10.1568 C.3     1  UNL1        0.0774
      3 C          63.2533   90.8351   10.2568 C.3     1  UNL1        0.0439
      4 C          63.9671   91.1476   11.5385 C.ar    1  UNL1       -0.0169
      5 C          63.8207   90.2355   12.7202 C.ar    1  UNL1        0.0195
      6 S          64.6397   90.7977   13.8441 S.2     1  UNL1       -0.0902
      7 C          65.2924   92.0574   13.3569 C.ar    1  UNL1        0.0290
      8 C          66.2114   93.0354   14.0268 C.ar    1  UNL1        0.0088
      9 C          66.7148   94.2298   13.2717 C.ar    1  UNL1        0.0301
     10 C          66.2991   94.4460   11.8468 C.ar    1  UNL1        0.1402
     11 F          66.8025   95.6404   11.0917 F       1  UNL1       -0.2042
     12 C          65.3801   93.4680   11.1769 C.ar    1  UNL1        0.0298
     13 C          64.8767   92.2737   11.9320 C.ar    1  UNL1        0.0045
     14 C          62.9605   89.0108   12.6202 C.3     1  UNL1        0.1056
     15 C          61.3865   87.4734   11.2385 C.3     1  UNL1        0.1011
     16 C          61.5128   85.6004    7.7420 C.ar    1  UNL1        0.1575
     17 C          60.1495   85.9160    7.2019 C.ar    1  UNL1        0.1356
     18 N          59.1985   86.7507    8.0073 N.ar    1  UNL1       -0.2394
     19 C          59.6108   87.2699    9.3529 C.ar    1  UNL1        0.0961
     20 C          60.9741   86.9543    9.8930 C.ar    1  UNL1        0.0161
     21 C          61.9252   86.1195    9.0875 C.ar    1  UNL1        0.0371
     22 C          62.0378   84.2144    5.6081 C.3     1  UNL1        0.2525
     23 O          62.4638   84.7657    6.9365 O.3     1  UNL1       -0.4699
@<TRIPOS>BOND
     1    22    23    1
     2    23    16    1
     3    16    17   ar
     4    17    18   ar
     5    18    19   ar
     6    19    20   ar
     7    20    15    1
     8    15     1    1
     9     1     2    1
    10     2     3    1
    11     3     4    1
    12     4     5   ar
    13     5     6   ar
    14     6     7   ar
    15     7     8   ar
    16     8     9   ar
    17     9    10   ar
    18    10    11    1
    19    10    12   ar
    20    12    13   ar
    21     5    14    1
    22    20    21   ar
    23    21    16   ar
    24    14     1    1
    25    13     4   ar
    26    13     7   ar
