@<TRIPOS>MOLECULE
*****
 29 32 0 0 0
SMALL
GASTEIGER

@<TRIPOS>ATOM
      1 C          64.3173   89.1063   14.9721 C.ar    1  UNL1        0.0200
      2 C          63.3998   89.3498   16.1335 C.ar    1  UNL1        0.0047
      3 C          62.7668   88.1910   16.8452 C.ar    1  UNL1        0.0369
      4 C          63.0515   86.7886   16.3954 C.ar    1  UNL1        0.1386
      5 C          63.9690   86.5451   15.2340 C.ar    1  UNL1        0.0369
      6 C          64.6019   87.7039   14.5223 C.ar    1  UNL1        0.0047
      7 N          66.7945   92.0906   14.1308 N.ar    1  UNL1       -0.2186
      8 N          66.1616   90.9317   14.8424 N.ar    1  UNL1       -0.1664
      9 C          64.9502   90.2652   14.2605 C.ar    1  UNL1        0.1071
     10 C          64.3719   90.7577   12.9671 C.ar    1  UNL1        0.0534
     11 S          63.1936   90.3040   12.1572 S.2     1  UNL1       -0.0847
     12 C          63.0983   91.1826   10.9452 C.ar    1  UNL1        0.0356
     13 C          64.2177   92.1792   11.0059 C.ar    1  UNL1        0.0123
     14 C          65.0048   91.9166   12.2555 C.ar    1  UNL1        0.0656
     15 C          66.2161   92.5830   12.8374 C.ar    1  UNL1        0.2768
     16 O          66.8491   93.7420   12.1259 O.2     1  UNL1       -0.2655
     17 C          69.3741   92.3856   14.2230 C.3     1  UNL1        0.0265
     18 C          68.0058   92.7571   14.7127 C.3     1  UNL1        0.1085
     19 C          67.8489   93.7949   15.7842 C.3     1  UNL1        0.0265
     20 O          62.4185   85.6298   17.1070 O.3     1  UNL1       -0.4754
     21 C          62.7764   84.2256   16.7197 C.3     1  UNL1        0.2068
     22 C          62.6178   83.7762   15.2974 C.3     1  UNL1        0.0646
     23 C          63.6709   82.9193   14.6597 C.3     1  UNL1        0.0759
     24 N          63.6247   82.6469   13.1854 N.3     1  UNL1       -0.2738
     25 C          64.1953   83.5218   12.1088 C.3     1  UNL1        0.0721
     26 C          63.9230   82.8674   10.7869 C.3     1  UNL1        0.0187
     27 C          63.1842   81.5879   11.0464 C.3     1  UNL1        0.0174
     28 C          62.9998   81.4517   12.5288 C.3     1  UNL1        0.0576
     29 C          62.3115   80.3191   13.2313 C.3     1  UNL1        0.0173
@<TRIPOS>BOND
     1    17    18    1
     2    18    19    1
     3    18     7    1
     4     7     8   ar
     5     8     9   ar
     6     9     1    1
     7     1     2   ar
     8     2     3   ar
     9     3     4   ar
    10     4    20    1
    11    20    21    1
    12    21    22    1
    13    22    23    1
    14    23    24    1
    15    24    25    1
    16    25    26    1
    17    26    27    1
    18    27    28    1
    19    28    29    1
    20     4     5   ar
    21     5     6   ar
    22     9    10   ar
    23    10    11   ar
    24    11    12   ar
    25    12    13   ar
    26    13    14   ar
    27    14    15   ar
    28    15    16    2
    29    15     7   ar
    30     6     1   ar
    31    14    10   ar
    32    28    24    1
@<TRIPOS>MOLECULE
*****
 29 32 0 0 0
SMALL
GASTEIGER

@<TRIPOS>ATOM
      1 C          62.5640   90.0782   11.1210 C.ar    1  UNL1        0.0200
      2 C          61.2117   90.6588   10.8311 C.ar    1  UNL1        0.0047
      3 C          60.1282   89.7900   10.2644 C.ar    1  UNL1        0.0369
      4 C          60.3971   88.3405    9.9877 C.ar    1  UNL1        0.1386
      5 C          61.7494   87.7598   10.2777 C.ar    1  UNL1        0.0369
      6 C          62.8329   88.6287   10.8444 C.ar    1  UNL1        0.0047
      7 N          65.5072   92.7303   11.3534 N.ar    1  UNL1       -0.2186
      8 N          64.4238   91.8614   10.7868 N.ar    1  UNL1       -0.1664
      9 C          63.6474   90.9472   11.6877 C.ar    1  UNL1        0.1071
     10 C          63.9546   90.9020   13.1552 C.ar    1  UNL1        0.0534
     11 S          63.3622   90.1066   14.2806 S.2     1  UNL1       -0.0847
     12 C          64.0795   90.4840   15.5427 C.ar    1  UNL1        0.0356
     13 C          65.1153   91.5126   15.1974 C.ar    1  UNL1        0.0123
     14 C          65.0381   91.7709   13.7218 C.ar    1  UNL1        0.0656
     15 C          65.8143   92.6851   12.8209 C.ar    1  UNL1        0.2768
     16 O          66.8978   93.5541   13.3875 O.2     1  UNL1       -0.2655
     17 C          67.4545   93.1171    9.6777 C.3     1  UNL1        0.0265
     18 C          66.2835   93.6446   10.4525 C.3     1  UNL1        0.1085
     19 C          65.8888   95.0862   10.3266 C.3     1  UNL1        0.0265
     20 O          59.3136   87.4716    9.4210 O.3     1  UNL1       -0.4754
     21 C          59.1506   87.3493    7.9350 C.3     1  UNL1        0.2068
     22 C          59.6230   88.4525    7.0352 C.3     1  UNL1        0.0646
     23 C          58.6627   89.5098    6.5771 C.3     1  UNL1        0.0759
     24 N          59.1092   90.5553    5.5985 N.3     1  UNL1       -0.2738
     25 C          60.5266   90.8426    5.2007 C.3     1  UNL1        0.0721
     26 C          60.5101   91.9619    4.2023 C.3     1  UNL1        0.0187
     27 C          59.0823   92.3665    3.9830 C.3     1  UNL1        0.0174
     28 C          58.2165   91.4971    4.8460 C.3     1  UNL1        0.0576
     29 C          56.7207   91.5587    4.9399 C.3     1  UNL1        0.0173
@<TRIPOS>BOND
     1    17    18    1
     2    18    19    1
     3    18     7    1
     4     7     8   ar
     5     8     9   ar
     6     9     1    1
     7     1     2   ar
     8     2     3   ar
     9     3     4   ar
    10     4    20    1
    11    20    21    1
    12    21    22    1
    13    22    23    1
    14    23    24    1
    15    24    25    1
    16    25    26    1
    17    26    27    1
    18    27    28    1
    19    28    29    1
    20     4     5   ar
    21     5     6   ar
    22     9    10   ar
    23    10    11   ar
    24    11    12   ar
    25    12    13   ar
    26    13    14   ar
    27    14    15   ar
    28    15    16    2
    29    15     7   ar
    30     6     1   ar
    31    14    10   ar
    32    28    24    1
@<TRIPOS>MOLECULE
*****
 29 32 0 0 0
SMALL
GASTEIGER

@<TRIPOS>ATOM
      1 C          63.6868   88.5092   13.2234 C.ar    1  UNL1        0.0200
      2 C          63.4362   89.7736   12.4562 C.ar    1  UNL1        0.0047
      3 C          63.8796   91.0920   13.0177 C.ar    1  UNL1        0.0369
      4 C          64.5736   91.1459   14.3464 C.ar    1  UNL1        0.1386
      5 C          64.8242   89.8815   15.1135 C.ar    1  UNL1        0.0369
      6 C          64.3808   88.5631   14.5520 C.ar    1  UNL1        0.0047
      7 N          63.1214   84.6010   12.8283 N.ar    1  UNL1       -0.2186
      8 N          63.5648   85.9193   13.3898 N.ar    1  UNL1       -0.1664
      9 C          63.2434   87.1909   12.6618 C.ar    1  UNL1        0.1071
     10 C          62.4786   87.1440   11.3723 C.ar    1  UNL1        0.0534
     11 S          62.0192   88.2238   10.4380 S.2     1  UNL1       -0.0847
     12 C          61.2919   87.5728    9.2991 C.ar    1  UNL1        0.0356
     13 C          61.3018   86.0906    9.5294 C.ar    1  UNL1        0.0123
     14 C          62.0352   85.8256   10.8108 C.ar    1  UNL1        0.0656
     15 C          62.3566   84.5541   11.5388 C.ar    1  UNL1        0.2768
     16 O          61.9132   83.2357   10.9773 O.2     1  UNL1       -0.2655
     17 C          62.8188   83.0516   14.8917 C.3     1  UNL1        0.0265
     18 C          63.4428   83.3294   13.5563 C.3     1  UNL1        0.1085
     19 C          64.3881   82.3358   12.9489 C.3     1  UNL1        0.0265
     20 O          65.0170   92.4643   14.9079 O.3     1  UNL1       -0.4754
     21 C          66.3598   93.0225   14.5404 C.3     1  UNL1        0.2068
     22 C          66.5087   93.8714   13.3127 C.3     1  UNL1        0.0646
     23 C          66.7159   93.2255   11.9749 C.3     1  UNL1        0.0759
     24 N          67.0178   94.0704   10.7728 N.3     1  UNL1       -0.2738
     25 C          66.6531   95.5146   10.5961 C.3     1  UNL1        0.0721
     26 C          67.1473   95.9562    9.2505 C.3     1  UNL1        0.0187
     27 C          67.8176   94.7849    8.5955 C.3     1  UNL1        0.0174
     28 C          67.7375   93.6194    9.5364 C.3     1  UNL1        0.0576
     29 C          68.2817   92.2444    9.2850 C.3     1  UNL1        0.0173
@<TRIPOS>BOND
     1    17    18    1
     2    18    19    1
     3    18     7    1
     4     7     8   ar
     5     8     9   ar
     6     9     1    1
     7     1     2   ar
     8     2     3   ar
     9     3     4   ar
    10     4    20    1
    11    20    21    1
    12    21    22    1
    13    22    23    1
    14    23    24    1
    15    24    25    1
    16    25    26    1
    17    26    27    1
    18    27    28    1
    19    28    29    1
    20     4     5   ar
    21     5     6   ar
    22     9    10   ar
    23    10    11   ar
    24    11    12   ar
    25    12    13   ar
    26    13    14   ar
    27    14    15   ar
    28    15    16    2
    29    15     7   ar
    30     6     1   ar
    31    14    10   ar
    32    28    24    1
@<TRIPOS>MOLECULE
*****
 29 32 0 0 0
SMALL
GASTEIGER

@<TRIPOS>ATOM
      1 C          63.4102   89.1796   12.7807 C.ar    1  UNL1        0.0200
      2 C          63.9328   88.7109   14.1063 C.ar    1  UNL1        0.0047
      3 C          64.5554   89.6909   15.0561 C.ar    1  UNL1        0.0369
      4 C          64.6554   91.1396   14.6801 C.ar    1  UNL1        0.1386
      5 C          64.1329   91.6082   13.3545 C.ar    1  UNL1        0.0369
      6 C          63.5103   90.6282   12.4048 C.ar    1  UNL1        0.0047
      7 N          62.5469   85.7701   10.9423 N.ar    1  UNL1       -0.2186
      8 N          63.1695   86.7501   11.8919 N.ar    1  UNL1       -0.1664
      9 C          62.7876   88.1995   11.8311 C.ar    1  UNL1        0.1071
     10 C          61.7832   88.6687   10.8206 C.ar    1  UNL1        0.0534
     11 S          61.2145   90.0250   10.5258 S.2     1  UNL1       -0.0847
     12 C          60.2404   89.8831    9.3940 C.ar    1  UNL1        0.0356
     13 C          60.2071   88.4391    8.9893 C.ar    1  UNL1        0.0123
     14 C          61.1607   87.6885    9.8710 C.ar    1  UNL1        0.0656
     15 C          61.5425   86.2392    9.9318 C.ar    1  UNL1        0.2768
     16 O          60.9200   85.2591    8.9822 O.2     1  UNL1       -0.2655
     17 C          63.7309   83.7093    9.8928 C.3     1  UNL1        0.0265
     18 C          62.9288   84.3207   11.0031 C.3     1  UNL1        0.1085
     19 C          62.5084   83.4829   12.1740 C.3     1  UNL1        0.0265
     20 O          65.2781   92.1196   15.6298 O.3     1  UNL1       -0.4754
     21 C          66.7650   92.3164   15.6366 C.3     1  UNL1        0.2068
     22 C          67.3745   93.4542   14.8724 C.3     1  UNL1        0.0646
     23 C          66.5712   94.1727   13.8292 C.3     1  UNL1        0.0759
     24 N          66.7172   93.8019   12.3831 N.3     1  UNL1       -0.2738
     25 C          67.1324   92.4611   11.8542 C.3     1  UNL1        0.0721
     26 C          67.1454   92.5374   10.3562 C.3     1  UNL1        0.0187
     27 C          66.7382   93.9255    9.9592 C.3     1  UNL1        0.0174
     28 C          66.4735   94.7070   11.2120 C.3     1  UNL1        0.0576
     29 C          66.0412   96.1417   11.2813 C.3     1  UNL1        0.0173
@<TRIPOS>BOND
     1    17    18    1
     2    18    19    1
     3    18     7    1
     4     7     8   ar
     5     8     9   ar
     6     9     1    1
     7     1     2   ar
     8     2     3   ar
     9     3     4   ar
    10     4    20    1
    11    20    21    1
    12    21    22    1
    13    22    23    1
    14    23    24    1
    15    24    25    1
    16    25    26    1
    17    26    27    1
    18    27    28    1
    19    28    29    1
    20     4     5   ar
    21     5     6   ar
    22     9    10   ar
    23    10    11   ar
    24    11    12   ar
    25    12    13   ar
    26    13    14   ar
    27    14    15   ar
    28    15    16    2
    29    15     7   ar
    30     6     1   ar
    31    14    10   ar
    32    28    24    1
@<TRIPOS>MOLECULE
*****
 29 32 0 0 0
SMALL
GASTEIGER

@<TRIPOS>ATOM
      1 C          63.7591   88.4801   13.2780 C.ar    1  UNL1        0.0200
      2 C          63.4893   89.7632   12.5495 C.ar    1  UNL1        0.0047
      3 C          63.8788   91.0731   13.1681 C.ar    1  UNL1        0.0369
      4 C          64.5381   91.0996   14.5151 C.ar    1  UNL1        0.1386
      5 C          64.8079   89.8165   15.2436 C.ar    1  UNL1        0.0369
      6 C          64.4184   88.5066   14.6250 C.ar    1  UNL1        0.0047
      7 N          62.4289   85.8243   10.6460 N.ar    1  UNL1       -0.2186
      8 N          62.8184   87.1340   11.2646 N.ar    1  UNL1       -0.1664
      9 C          63.3696   87.1703   12.6593 C.ar    1  UNL1        0.1071
     10 C          63.5311   85.8967   13.4352 C.ar    1  UNL1        0.0534
     11 S          64.0429   85.6221   14.8182 S.2     1  UNL1       -0.0847
     12 C          63.9696   84.1426   15.0542 C.ar    1  UNL1        0.0356
     13 C          63.4125   83.5029   13.8171 C.ar    1  UNL1        0.0123
     14 C          63.1416   84.5870   12.8164 C.ar    1  UNL1        0.0656
     15 C          62.5905   84.5508   11.4218 C.ar    1  UNL1        0.2768
     16 O          62.2009   83.2410   10.8031 O.2     1  UNL1       -0.2655
     17 C          60.4753   86.2498    8.9869 C.3     1  UNL1        0.0265
     18 C          61.8777   85.7880    9.2513 C.3     1  UNL1        0.1085
     19 C          62.7289   85.2900    8.1212 C.3     1  UNL1        0.0265
     20 O          64.9276   92.4095   15.1337 O.3     1  UNL1       -0.4754
     21 C          66.2887   92.9849   14.8769 C.3     1  UNL1        0.2068
     22 C          66.5356   93.8073   13.6469 C.3     1  UNL1        0.0646
     23 C          66.6442   93.1400   12.3079 C.3     1  UNL1        0.0759
     24 N          66.9299   93.9578   11.0833 N.3     1  UNL1       -0.2738
     25 C          66.5462   95.3924   10.8720 C.3     1  UNL1        0.0721
     26 C          67.0285   95.8059    9.5132 C.3     1  UNL1        0.0187
     27 C          67.7102   94.6268    8.8846 C.3     1  UNL1        0.0174
     28 C          67.6493   93.4846    9.8551 C.3     1  UNL1        0.0576
     29 C          68.2094   92.1105    9.6358 C.3     1  UNL1        0.0173
@<TRIPOS>BOND
     1    17    18    1
     2    18    19    1
     3    18     7    1
     4     7     8   ar
     5     8     9   ar
     6     9     1    1
     7     1     2   ar
     8     2     3   ar
     9     3     4   ar
    10     4    20    1
    11    20    21    1
    12    21    22    1
    13    22    23    1
    14    23    24    1
    15    24    25    1
    16    25    26    1
    17    26    27    1
    18    27    28    1
    19    28    29    1
    20     4     5   ar
    21     5     6   ar
    22     9    10   ar
    23    10    11   ar
    24    11    12   ar
    25    12    13   ar
    26    13    14   ar
    27    14    15   ar
    28    15    16    2
    29    15     7   ar
    30     6     1   ar
    31    14    10   ar
    32    28    24    1
@<TRIPOS>MOLECULE
*****
 29 32 0 0 0
SMALL
GASTEIGER

@<TRIPOS>ATOM
      1 C          61.5149   87.8393   10.3913 C.ar    1  UNL1        0.0200
      2 C          61.0787   86.8315    9.3696 C.ar    1  UNL1        0.0047
      3 C          60.2461   87.2626    8.1987 C.ar    1  UNL1        0.0369
      4 C          59.8498   88.7015    8.0497 C.ar    1  UNL1        0.1386
      5 C          60.2859   89.7094    9.0714 C.ar    1  UNL1        0.0369
      6 C          61.1185   89.2783   10.2423 C.ar    1  UNL1        0.0047
      7 N          63.3079   85.5199   13.0663 N.ar    1  UNL1       -0.2186
      8 N          62.4754   85.9512   11.8956 N.ar    1  UNL1       -0.1664
      9 C          62.3475   87.4081   11.5622 C.ar    1  UNL1        0.1071
     10 C          63.0522   88.4337   12.3998 C.ar    1  UNL1        0.0534
     11 S          63.1117   89.9301   12.3148 S.2     1  UNL1       -0.0847
     12 C          63.9810   90.4237   13.4331 C.ar    1  UNL1        0.0356
     13 C          64.4588   89.2323   14.2092 C.ar    1  UNL1        0.0123
     14 C          63.8848   88.0024   13.5706 C.ar    1  UNL1        0.0656
     15 C          64.0126   86.5455   13.9039 C.ar    1  UNL1        0.2768
     16 O          64.8452   86.1142   15.0747 O.2     1  UNL1       -0.2655
     17 C          64.3320   83.1821   12.5806 C.3     1  UNL1        0.0265
     18 C          63.4358   84.0630   13.3997 C.3     1  UNL1        0.1085
     19 C          62.6675   83.4870   14.5520 C.3     1  UNL1        0.0265
     20 O          59.0172   89.1326    6.8788 O.3     1  UNL1       -0.4754
     21 C          59.5948   90.0554    5.8469 C.3     1  UNL1        0.2068
     22 C          58.7115   91.0461    5.1481 C.3     1  UNL1        0.0646
     23 C          59.3026   92.2912    4.5563 C.3     1  UNL1        0.0759
     24 N          60.5325   92.2048    3.7020 N.3     1  UNL1       -0.2738
     25 C          61.8100   91.5069    4.0638 C.3     1  UNL1        0.0721
     26 C          62.7680   91.6719    2.9214 C.3     1  UNL1        0.0187
     27 C          62.0826   92.4718    1.8535 C.3     1  UNL1        0.0174
     28 C          60.7009   92.8012    2.3360 C.3     1  UNL1        0.0576
     29 C          59.6689   93.5887    1.5844 C.3     1  UNL1        0.0173
@<TRIPOS>BOND
     1    17    18    1
     2    18    19    1
     3    18     7    1
     4     7     8   ar
     5     8     9   ar
     6     9     1    1
     7     1     2   ar
     8     2     3   ar
     9     3     4   ar
    10     4    20    1
    11    20    21    1
    12    21    22    1
    13    22    23    1
    14    23    24    1
    15    24    25    1
    16    25    26    1
    17    26    27    1
    18    27    28    1
    19    28    29    1
    20     4     5   ar
    21     5     6   ar
    22     9    10   ar
    23    10    11   ar
    24    11    12   ar
    25    12    13   ar
    26    13    14   ar
    27    14    15   ar
    28    15    16    2
    29    15     7   ar
    30     6     1   ar
    31    14    10   ar
    32    28    24    1
@<TRIPOS>MOLECULE
*****
 29 32 0 0 0
SMALL
GASTEIGER

@<TRIPOS>ATOM
      1 C          63.4381   90.5976   11.3742 C.ar    1  UNL1        0.0200
      2 C          63.2003   89.2853   12.0607 C.ar    1  UNL1        0.0047
      3 C          62.2661   88.2803   11.4547 C.ar    1  UNL1        0.0369
      4 C          61.5697   88.5877   10.1622 C.ar    1  UNL1        0.1386
      5 C          61.8075   89.9000    9.4757 C.ar    1  UNL1        0.0369
      6 C          62.7417   90.9050   10.0817 C.ar    1  UNL1        0.0047
      7 N          65.9560   93.6457   11.7199 N.ar    1  UNL1       -0.2186
      8 N          65.0218   92.6408   11.1140 N.ar    1  UNL1       -0.1664
      9 C          64.3724   91.6026   11.9803 C.ar    1  UNL1        0.1071
     10 C          64.6572   91.5694   13.4526 C.ar    1  UNL1        0.0534
     11 S          64.1684   90.6706   14.5494 S.2     1  UNL1       -0.0847
     12 C          64.8005   91.1200   15.8333 C.ar    1  UNL1        0.0356
     13 C          65.6800   92.2967   15.5300 C.ar    1  UNL1        0.0123
     14 C          65.5915   92.5744   14.0586 C.ar    1  UNL1        0.0656
     15 C          66.2409   93.6125   13.1922 C.ar    1  UNL1        0.2768
     16 O          67.1751   94.6175   13.7982 O.2     1  UNL1       -0.2655
     17 C          67.6067   94.2742    9.8146 C.3     1  UNL1        0.0265
     18 C          66.6054   94.6840   10.8536 C.3     1  UNL1        0.1085
     19 C          66.2536   96.1318   11.0263 C.3     1  UNL1        0.0265
     20 O          60.6355   87.5827    9.5562 O.3     1  UNL1       -0.4754
     21 C          61.1846   86.3906    8.8302 C.3     1  UNL1        0.2068
     22 C          62.1663   85.4840    9.5116 C.3     1  UNL1        0.0646
     23 C          61.8468   84.9111   10.8606 C.3     1  UNL1        0.0759
     24 N          62.9560   84.4868   11.7770 N.3     1  UNL1       -0.2738
     25 C          63.2766   85.0913   13.1119 C.3     1  UNL1        0.0721
     26 C          64.4579   84.3617   13.6794 C.3     1  UNL1        0.0187
     27 C          64.8675   83.3062   12.6953 C.3     1  UNL1        0.0174
     28 C          63.9391   83.3836   11.5195 C.3     1  UNL1        0.0576
     29 C          63.9858   82.5110   10.3003 C.3     1  UNL1        0.0173
@<TRIPOS>BOND
     1    17    18    1
     2    18    19    1
     3    18     7    1
     4     7     8   ar
     5     8     9   ar
     6     9     1    1
     7     1     2   ar
     8     2     3   ar
     9     3     4   ar
    10     4    20    1
    11    20    21    1
    12    21    22    1
    13    22    23    1
    14    23    24    1
    15    24    25    1
    16    25    26    1
    17    26    27    1
    18    27    28    1
    19    28    29    1
    20     4     5   ar
    21     5     6   ar
    22     9    10   ar
    23    10    11   ar
    24    11    12   ar
    25    12    13   ar
    26    13    14   ar
    27    14    15   ar
    28    15    16    2
    29    15     7   ar
    30     6     1   ar
    31    14    10   ar
    32    28    24    1
@<TRIPOS>MOLECULE
*****
 29 32 0 0 0
SMALL
GASTEIGER

@<TRIPOS>ATOM
      1 C          61.8051   86.3893   10.1424 C.ar    1  UNL1        0.0200
      2 C          61.5940   87.8739   10.1032 C.ar    1  UNL1        0.0047
      3 C          60.7736   88.4861    9.0067 C.ar    1  UNL1        0.0369
      4 C          60.1644   87.6137    7.9495 C.ar    1  UNL1        0.1386
      5 C          60.3755   86.1291    7.9887 C.ar    1  UNL1        0.0369
      6 C          61.1958   85.5169    9.0852 C.ar    1  UNL1        0.0047
      7 N          63.6906   85.9275   13.6038 N.ar    1  UNL1       -0.2186
      8 N          62.8703   86.5395   12.5074 N.ar    1  UNL1       -0.1664
      9 C          62.6255   85.7772   11.2389 C.ar    1  UNL1        0.1071
     10 C          63.2011   84.4027   11.0671 C.ar    1  UNL1        0.0534
     11 S          63.1292   83.4186    9.9373 S.2     1  UNL1       -0.0847
     12 C          63.9052   82.1982   10.3357 C.ar    1  UNL1        0.0356
     13 C          64.4566   82.4282   11.7116 C.ar    1  UNL1        0.0123
     14 C          64.0214   83.7907   12.1636 C.ar    1  UNL1        0.0656
     15 C          64.2662   84.5531   13.4320 C.ar    1  UNL1        0.2768
     16 O          65.0865   83.9410   14.5285 O.2     1  UNL1       -0.2655
     17 C          64.4327   88.1038   14.8134 C.3     1  UNL1        0.0265
     18 C          63.9354   86.6899   14.8723 C.3     1  UNL1        0.1085
     19 C          63.6829   86.0384   16.1995 C.3     1  UNL1        0.0265
     20 O          59.3440   88.2259    6.8531 O.3     1  UNL1       -0.4754
     21 C          59.0042   89.6862    6.8966 C.3     1  UNL1        0.2068
     22 C          59.1779   90.5336    5.6712 C.3     1  UNL1        0.0646
     23 C          60.5502   90.7788    5.1172 C.3     1  UNL1        0.0759
     24 N          60.7438   91.7624    4.0014 N.3     1  UNL1       -0.2738
     25 C          59.7367   92.7682    3.5281 C.3     1  UNL1        0.0721
     26 C          60.3490   93.5403    2.3971 C.3     1  UNL1        0.0187
     27 C          61.7345   93.0116    2.1714 C.3     1  UNL1        0.0174
     28 C          61.9785   91.9127    3.1630 C.3     1  UNL1        0.0576
     29 C          63.2363   91.1059    3.2932 C.3     1  UNL1        0.0173
@<TRIPOS>BOND
     1    17    18    1
     2    18    19    1
     3    18     7    1
     4     7     8   ar
     5     8     9   ar
     6     9     1    1
     7     1     2   ar
     8     2     3   ar
     9     3     4   ar
    10     4    20    1
    11    20    21    1
    12    21    22    1
    13    22    23    1
    14    23    24    1
    15    24    25    1
    16    25    26    1
    17    26    27    1
    18    27    28    1
    19    28    29    1
    20     4     5   ar
    21     5     6   ar
    22     9    10   ar
    23    10    11   ar
    24    11    12   ar
    25    12    13   ar
    26    13    14   ar
    27    14    15   ar
    28    15    16    2
    29    15     7   ar
    30     6     1   ar
    31    14    10   ar
    32    28    24    1
@<TRIPOS>MOLECULE
*****
 29 32 0 0 0
SMALL
GASTEIGER

@<TRIPOS>ATOM
      1 C          61.8908   93.2334    1.7913 C.ar    1  UNL1        0.0200
      2 C          60.4833   93.6941    2.0291 C.ar    1  UNL1        0.0047
      3 C          59.6809   93.1055    3.1514 C.ar    1  UNL1        0.0369
      4 C          60.2861   92.0561    4.0360 C.ar    1  UNL1        0.1386
      5 C          61.6937   91.5953    3.7982 C.ar    1  UNL1        0.0369
      6 C          62.4961   92.1840    2.6758 C.ar    1  UNL1        0.0047
      7 N          63.2815   93.9330   -1.8593 N.ar    1  UNL1       -0.2186
      8 N          62.4793   93.3444   -0.7369 N.ar    1  UNL1       -0.1664
      9 C          62.6932   93.8221    0.6689 C.ar    1  UNL1        0.1071
     10 C          63.7094   94.8884    0.9521 C.ar    1  UNL1        0.0534
     11 S          64.1369   95.5543    2.2264 S.2     1  UNL1       -0.0847
     12 C          65.2034   96.5545    1.8915 C.ar    1  UNL1        0.0356
     13 C          65.4350   96.5068    0.4103 C.ar    1  UNL1        0.0123
     14 C          64.5116   95.4771   -0.1703 C.ar    1  UNL1        0.0656
     15 C          64.2977   94.9994   -1.5760 C.ar    1  UNL1        0.2768
     16 O          65.1000   95.5880   -2.6985 O.2     1  UNL1       -0.2655
     17 C          64.0032   92.4483   -3.8654 C.3     1  UNL1        0.0265
     18 C          63.0676   93.4553   -3.2651 C.3     1  UNL1        0.1085
     19 C          61.9182   93.9847   -4.0704 C.3     1  UNL1        0.0265
     20 O          59.4838   91.4675    5.1583 O.3     1  UNL1       -0.4754
     21 C          59.7236   90.0509    5.5893 C.3     1  UNL1        0.2068
     22 C          59.6310   89.6825    7.0404 C.3     1  UNL1        0.0646
     23 C          59.2726   88.2809    7.4369 C.3     1  UNL1        0.0759
     24 N          59.9804   87.6217    8.5834 N.3     1  UNL1       -0.2738
     25 C          60.0364   88.1289    9.9939 C.3     1  UNL1        0.0721
     26 C          60.8470   87.1602   10.8030 C.3     1  UNL1        0.0187
     27 C          61.2919   86.0542    9.8925 C.3     1  UNL1        0.0174
     28 C          60.7563   86.3395    8.5207 C.3     1  UNL1        0.0576
     29 C          60.9607   85.4914    7.3004 C.3     1  UNL1        0.0173
@<TRIPOS>BOND
     1    17    18    1
     2    18    19    1
     3    18     7    1
     4     7     8   ar
     5     8     9   ar
     6     9     1    1
     7     1     2   ar
     8     2     3   ar
     9     3     4   ar
    10     4    20    1
    11    20    21    1
    12    21    22    1
    13    22    23    1
    14    23    24    1
    15    24    25    1
    16    25    26    1
    17    26    27    1
    18    27    28    1
    19    28    29    1
    20     4     5   ar
    21     5     6   ar
    22     9    10   ar
    23    10    11   ar
    24    11    12   ar
    25    12    13   ar
    26    13    14   ar
    27    14    15   ar
    28    15    16    2
    29    15     7   ar
    30     6     1   ar
    31    14    10   ar
    32    28    24    1
