@<TRIPOS>MOLECULE
*****
 42 48 0 0 0
SMALL
GASTEIGER

@<TRIPOS>ATOM
      1 O          58.1046   88.9902    6.7983 O.2     1  UNL1       -0.2701
      2 C          59.4358   89.6735    6.6932 C.2     1  UNL1        0.2461
      3 N          60.4967   89.4108    7.7205 N.am    1  UNL1       -0.2970
      4 H          61.3704   89.8593    7.6516 H       1  UNL1        0.1500
      5 C          59.7059   90.6196    5.5610 C.ar    1  UNL1        0.0550
      6 C          58.5909   91.4457    4.9916 C.ar    1  UNL1        0.0061
      7 C          58.8611   92.3917    3.8593 C.ar    1  UNL1        0.0189
      8 C          60.2463   92.5116    3.2964 C.ar    1  UNL1        0.0788
      9 C          61.3613   91.6855    3.8658 C.ar    1  UNL1        0.0988
     10 C          61.0911   90.7394    4.9981 C.ar    1  UNL1        0.0251
     11 N          62.6148   92.0155    3.1110 N.ar    1  UNL1       -0.2267
     12 C          62.2744   93.0455    2.0751 C.ar    1  UNL1        0.1469
     13 N          60.8106   93.3522    2.1897 N.ar    1  UNL1       -0.3133
     14 C          60.0455   94.3281    1.3457 C.3     1  UNL1        0.0869
     15 C          59.1296   93.8301    0.2672 C.3     1  UNL1        0.0226
     16 C          58.3645   94.8060   -0.5767 C.3     1  UNL1        0.0019
     17 C          58.5152   96.2798   -0.3422 C.3     1  UNL1        0.0001
     18 C          59.4310   96.7778    0.7363 C.3     1  UNL1        0.0019
     19 C          60.1962   95.8019    1.5803 C.3     1  UNL1        0.0226
     20 C          63.2302   93.6610    1.0964 C.ar    1  UNL1        0.0748
     21 C          63.0007   93.8229   -0.3771 C.ar    1  UNL1        0.0468
     22 C          64.2119   94.4845   -0.9649 C.ar    1  UNL1        0.1799
     23 O          65.1899   94.7314    0.1454 O.2     1  UNL1       -0.4472
     24 C          64.5831   94.2224    1.4192 C.ar    1  UNL1        0.1827
     25 C          60.2266   88.4648    8.8528 C.3     1  UNL1        0.1170
     26 C          60.2048   88.9714   10.2644 C.ar    1  UNL1        0.0842
     27 C          61.1951   89.9168   10.8772 C.ar    1  UNL1        0.0533
     28 S          60.7913   90.1513   12.3027 S.2     1  UNL1       -0.0642
     29 C          59.5514   89.3508   12.5709 C.ar    1  UNL1        0.1342
     30 N          59.1889   88.6216   11.3112 N.ar    1  UNL1       -0.2389
     31 C          59.9781   87.0120    8.5733 C.3     1  UNL1        0.0537
     32 C          61.1301   86.0537    8.5052 C.2     1  UNL1        0.0002
     33 C          61.7532   85.5118    7.2530 C.2     1  UNL1        0.0943
     34 N          62.8694   84.5922    7.6512 N.2     1  UNL1       -0.2482
     35 C          62.9361   84.5659    9.1495 C.2     1  UNL1        0.0633
     36 C          63.8369   83.8361   10.1013 C.3     1  UNL1        0.0749
     37 C          63.6626   84.0096   11.5810 C.2     1  UNL1        0.0168
     38 C          62.5877   84.9129   12.1088 C.2     1  UNL1        0.1298
     39 O          62.4134   85.0864   13.5886 O.2     1  UNL1       -0.5058
     40 C          61.6869   85.6427   11.1569 C.2     1  UNL1        0.0372
     41 C          61.8612   85.4692    9.6773 C.2     1  UNL1        0.0145
     42 H          62.9761   84.6305   14.1832 H       1  UNL1        0.2922
@<TRIPOS>BOND
     1     1     2    2
     2     2     3   am
     3     3    25    1
     4    25    31    1
     5    31    32    1
     6    32    33    2
     7    33    34    1
     8    34    35    2
     9    35    36    1
    10    36    37    1
    11    37    38    2
    12    38    39    1
    13    38    40    1
    14    40    41    2
    15    25    26    1
    16    26    27   ar
    17    27    28   ar
    18    28    29   ar
    19    29    30   ar
    20     2     5    1
    21     5     6   ar
    22     6     7   ar
    23     7     8   ar
    24     8     9   ar
    25     9    10   ar
    26     9    11   ar
    27    11    12   ar
    28    12    20    1
    29    20    21   ar
    30    21    22   ar
    31    22    23   ar
    32    23    24   ar
    33    12    13   ar
    34    13    14    1
    35    14    15    1
    36    15    16    1
    37    16    17    1
    38    17    18    1
    39    18    19    1
    40    41    32    1
    41    30    26   ar
    42    10     5   ar
    43    24    20   ar
    44    19    14    1
    45    41    35    1
    46    13     8   ar
    47     3     4    1
    48    39    42    1
@<TRIPOS>MOLECULE
*****
 42 48 0 0 0
SMALL
GASTEIGER

@<TRIPOS>ATOM
      1 O          60.5580   88.7368   11.6157 O.2     1  UNL1       -0.2701
      2 C          61.9827   88.6076   11.1648 C.2     1  UNL1        0.2461
      3 N          62.4395   87.3584   10.4714 N.am    1  UNL1       -0.2970
      4 H          63.3747   87.2736   10.1754 H       1  UNL1        0.1500
      5 C          62.9506   89.7275   11.4073 C.ar    1  UNL1        0.0550
      6 C          63.0634   90.8489   10.4174 C.ar    1  UNL1        0.0061
      7 C          64.0313   91.9689   10.6599 C.ar    1  UNL1        0.0189
      8 C          64.8864   91.9675   11.8922 C.ar    1  UNL1        0.0788
      9 C          64.7737   90.8461   12.8821 C.ar    1  UNL1        0.0988
     10 C          63.8058   89.7261   12.6396 C.ar    1  UNL1        0.0251
     11 N          65.7399   91.1138   13.9978 N.ar    1  UNL1       -0.2267
     12 C          66.4498   92.4006   13.6975 C.ar    1  UNL1        0.1469
     13 N          65.9223   92.9282   12.3962 N.ar    1  UNL1       -0.3133
     14 C          66.3548   94.1943   11.7179 C.3     1  UNL1        0.0869
     15 C          66.0909   95.5207   12.3667 C.3     1  UNL1        0.0226
     16 C          66.5233   96.7867   11.6884 C.3     1  UNL1        0.0019
     17 C          67.2197   96.7264   10.3613 C.3     1  UNL1        0.0001
     18 C          67.4836   95.4001    9.7124 C.3     1  UNL1        0.0019
     19 C          67.0511   94.1340   10.3907 C.3     1  UNL1        0.0226
     20 C          67.5023   93.0464   14.5490 C.ar    1  UNL1        0.0748
     21 C          68.9225   92.5863   14.6956 C.ar    1  UNL1        0.0468
     22 C          69.6174   93.5212   15.6406 C.ar    1  UNL1        0.1799
     23 O          68.6268   94.5592   16.0780 O.2     1  UNL1       -0.4472
     24 C          67.3196   94.2657   15.4033 C.ar    1  UNL1        0.1827
     25 C          61.4716   86.2384   10.2289 C.3     1  UNL1        0.1170
     26 C          60.5846   86.2624    9.0195 C.ar    1  UNL1        0.0842
     27 C          59.3619   87.1124    8.8397 C.ar    1  UNL1        0.0533
     28 S          58.7861   86.8159    7.4867 S.2     1  UNL1       -0.0642
     29 C          59.6530   85.7826    6.8304 C.ar    1  UNL1        0.1342
     30 N          60.7646   85.4405    7.7777 N.ar    1  UNL1       -0.2389
     31 C          61.3908   85.0944   11.1958 C.3     1  UNL1        0.0537
     32 C          62.6453   84.5177   11.7819 C.2     1  UNL1        0.0002
     33 C          63.3499   83.2797   11.3119 C.2     1  UNL1        0.0943
     34 N          64.5555   83.0746   12.1805 N.2     1  UNL1       -0.2482
     35 C          64.5961   84.1858   13.1872 C.2     1  UNL1        0.0633
     36 C          65.5555   84.5008   14.2963 C.3     1  UNL1        0.0749
     37 C          65.3343   85.7076   15.1592 C.2     1  UNL1        0.0168
     38 C          64.1537   86.5995   14.9129 C.2     1  UNL1        0.1298
     39 O          63.9325   87.8064   15.7758 O.2     1  UNL1       -0.5058
     40 C          63.1943   86.2846   13.8037 C.2     1  UNL1        0.0372
     41 C          63.4155   85.0777   12.9409 C.2     1  UNL1        0.0145
     42 H          64.5319   88.0032   16.4686 H       1  UNL1        0.2922
@<TRIPOS>BOND
     1     1     2    2
     2     2     3   am
     3     3    25    1
     4    25    31    1
     5    31    32    1
     6    32    33    2
     7    33    34    1
     8    34    35    2
     9    35    36    1
    10    36    37    1
    11    37    38    2
    12    38    39    1
    13    38    40    1
    14    40    41    2
    15    25    26    1
    16    26    27   ar
    17    27    28   ar
    18    28    29   ar
    19    29    30   ar
    20     2     5    1
    21     5     6   ar
    22     6     7   ar
    23     7     8   ar
    24     8     9   ar
    25     9    10   ar
    26     9    11   ar
    27    11    12   ar
    28    12    20    1
    29    20    21   ar
    30    21    22   ar
    31    22    23   ar
    32    23    24   ar
    33    12    13   ar
    34    13    14    1
    35    14    15    1
    36    15    16    1
    37    16    17    1
    38    17    18    1
    39    18    19    1
    40    41    32    1
    41    30    26   ar
    42    10     5   ar
    43    24    20   ar
    44    19    14    1
    45    41    35    1
    46    13     8   ar
    47     3     4    1
    48    39    42    1
@<TRIPOS>MOLECULE
*****
 42 48 0 0 0
SMALL
GASTEIGER

@<TRIPOS>ATOM
      1 O          64.5540   92.0240   15.2119 O.2     1  UNL1       -0.2701
      2 C          64.9189   91.6718   13.8002 C.2     1  UNL1        0.2461
      3 N          65.9213   92.5024   13.0552 N.am    1  UNL1       -0.2970
      4 H          66.1608   92.2713   12.1287 H       1  UNL1        0.1500
      5 C          64.2812   90.4890   13.1336 C.ar    1  UNL1        0.0550
      6 C          63.5024   90.6728   11.8648 C.ar    1  UNL1        0.0061
      7 C          62.8647   89.4900   11.1982 C.ar    1  UNL1        0.0189
      8 C          63.0059   88.1235   11.8003 C.ar    1  UNL1        0.0788
      9 C          63.7847   87.9397   13.0691 C.ar    1  UNL1        0.0988
     10 C          64.4223   89.1225   13.7357 C.ar    1  UNL1        0.0251
     11 N          63.7527   86.4831   13.4257 N.ar    1  UNL1       -0.2267
     12 C          62.9541   85.7666   12.3774 C.ar    1  UNL1        0.1469
     13 N          62.4926   86.7804   11.3728 N.ar    1  UNL1       -0.3133
     14 C          61.6633   86.5004   10.1547 C.3     1  UNL1        0.0869
     15 C          60.2649   87.0347   10.0603 C.3     1  UNL1        0.0226
     16 C          59.4356   86.7547    8.8421 C.3     1  UNL1        0.0019
     17 C          60.0048   85.9403    7.7184 C.3     1  UNL1        0.0001
     18 C          61.4032   85.4060    7.8127 C.3     1  UNL1        0.0019
     19 C          62.2324   85.6861    9.0309 C.3     1  UNL1        0.0226
     20 C          62.6675   84.2947   12.3401 C.ar    1  UNL1        0.0748
     21 C          63.0191   83.3560   11.2243 C.ar    1  UNL1        0.0468
     22 C          62.5478   81.9843   11.6067 C.ar    1  UNL1        0.1799
     23 O          61.9049   82.0752   12.9589 O.2     1  UNL1       -0.4472
     24 C          61.9789   83.5032   13.4121 C.ar    1  UNL1        0.1827
     25 C          66.5590   93.6852   13.7218 C.3     1  UNL1        0.1170
     26 C          67.6234   93.4784   14.7583 C.ar    1  UNL1        0.0842
     27 C          68.0467   92.1607   15.3366 C.ar    1  UNL1        0.0533
     28 S          69.1363   92.4208   16.3341 S.2     1  UNL1       -0.0642
     29 C          69.3864   93.8993   16.3723 C.ar    1  UNL1        0.1342
     30 N          68.4514   94.5529   15.3984 N.ar    1  UNL1       -0.2389
     31 C          66.1322   95.0749   13.3520 C.3     1  UNL1        0.0537
     32 C          66.1997   95.5248   11.9226 C.2     1  UNL1        0.0002
     33 C          65.6780   96.8228   11.3812 C.2     1  UNL1        0.0943
     34 N          65.9565   96.8558    9.9077 N.2     1  UNL1       -0.2482
     35 C          66.6504   95.5782    9.5384 C.2     1  UNL1        0.0633
     36 C          67.1648   95.0577    8.2291 C.3     1  UNL1        0.0749
     37 C          67.8294   93.7145    8.1650 C.2     1  UNL1        0.0168
     38 C          67.9797   92.8919    9.4103 C.2     1  UNL1        0.1298
     39 O          68.6444   91.5487    9.3462 O.2     1  UNL1       -0.5058
     40 C          67.4653   93.4125   10.7196 C.2     1  UNL1        0.0372
     41 C          66.8007   94.7556   10.7837 C.2     1  UNL1        0.0145
     42 H          68.9657   91.2235    8.5283 H       1  UNL1        0.2922
@<TRIPOS>BOND
     1     1     2    2
     2     2     3   am
     3     3    25    1
     4    25    31    1
     5    31    32    1
     6    32    33    2
     7    33    34    1
     8    34    35    2
     9    35    36    1
    10    36    37    1
    11    37    38    2
    12    38    39    1
    13    38    40    1
    14    40    41    2
    15    25    26    1
    16    26    27   ar
    17    27    28   ar
    18    28    29   ar
    19    29    30   ar
    20     2     5    1
    21     5     6   ar
    22     6     7   ar
    23     7     8   ar
    24     8     9   ar
    25     9    10   ar
    26     9    11   ar
    27    11    12   ar
    28    12    20    1
    29    20    21   ar
    30    21    22   ar
    31    22    23   ar
    32    23    24   ar
    33    12    13   ar
    34    13    14    1
    35    14    15    1
    36    15    16    1
    37    16    17    1
    38    17    18    1
    39    18    19    1
    40    41    32    1
    41    30    26   ar
    42    10     5   ar
    43    24    20   ar
    44    19    14    1
    45    41    35    1
    46    13     8   ar
    47     3     4    1
    48    39    42    1
@<TRIPOS>MOLECULE
*****
 42 48 0 0 0
SMALL
GASTEIGER

@<TRIPOS>ATOM
      1 O          60.5087   88.8684   11.5410 O.2     1  UNL1       -0.2701
      2 C          61.9377   88.6953   11.1191 C.2     1  UNL1        0.2461
      3 N          62.3755   87.4221   10.4579 N.am    1  UNL1       -0.2970
      4 H          63.3134   87.3085   10.1809 H       1  UNL1        0.1500
      5 C          62.9289   89.7955   11.3583 C.ar    1  UNL1        0.0550
      6 C          63.0305   90.9370   10.3906 C.ar    1  UNL1        0.0061
      7 C          64.0217   92.0372   10.6298 C.ar    1  UNL1        0.0189
      8 C          64.9112   91.9958   11.8369 C.ar    1  UNL1        0.0788
      9 C          64.8096   90.8543   12.8046 C.ar    1  UNL1        0.0988
     10 C          63.8184   89.7541   12.5654 C.ar    1  UNL1        0.0251
     11 N          65.8109   91.0829   13.8979 N.ar    1  UNL1       -0.2267
     12 C          66.5313   92.3657   13.6057 C.ar    1  UNL1        0.1469
     13 N          65.9753   92.9299   12.3319 N.ar    1  UNL1       -0.3133
     14 C          66.4075   94.2045   11.6695 C.3     1  UNL1        0.0869
     15 C          67.0926   94.1617   10.3359 C.3     1  UNL1        0.0226
     16 C          67.5248   95.4363    9.6735 C.3     1  UNL1        0.0019
     17 C          67.2718   96.7536   10.3447 C.3     1  UNL1        0.0001
     18 C          66.5866   96.7963   11.6784 C.3     1  UNL1        0.0019
     19 C          66.1544   95.5218   12.3408 C.3     1  UNL1        0.0226
     20 C          67.6172   92.9770   14.4407 C.ar    1  UNL1        0.0748
     21 C          67.4222   93.9493   15.5662 C.ar    1  UNL1        0.0468
     22 C          68.7731   94.2965   16.1180 C.ar    1  UNL1        0.1799
     23 O          69.8030   93.5389   15.3335 O.2     1  UNL1       -0.4472
     24 C          69.0885   92.7235   14.2969 C.ar    1  UNL1        0.1827
     25 C          61.3843   86.3220   10.2186 C.3     1  UNL1        0.1170
     26 C          60.4784   86.3753    9.0243 C.ar    1  UNL1        0.0842
     27 C          60.6852   85.6498    7.7278 C.ar    1  UNL1        0.0533
     28 S          59.5413   85.9895    6.8189 S.2     1  UNL1       -0.0642
     29 C          58.6275   86.9250    7.5538 C.ar    1  UNL1        0.1342
     30 N          59.2067   87.1634    8.9168 N.ar    1  UNL1       -0.2389
     31 C          61.2991   85.1684   11.1738 C.3     1  UNL1        0.0537
     32 C          62.4078   84.9226   12.1537 C.2     1  UNL1        0.0002
     33 C          63.2828   85.9700   12.7761 C.2     1  UNL1        0.0943
     34 N          64.2520   85.2808   13.6903 N.2     1  UNL1       -0.2482
     35 C          63.9759   83.8075   13.6330 C.2     1  UNL1        0.0633
     36 C          64.6152   82.6390   14.3228 C.3     1  UNL1        0.0749
     37 C          64.1146   81.2491   14.0630 C.2     1  UNL1        0.0168
     38 C          62.9748   81.0277   13.1133 C.2     1  UNL1        0.1298
     39 O          62.4743   79.6377   12.8535 O.2     1  UNL1       -0.5058
     40 C          62.3356   82.1962   12.4235 C.2     1  UNL1        0.0372
     41 C          62.8361   83.5861   12.6833 C.2     1  UNL1        0.0145
     42 H          62.8736   78.9078   13.2845 H       1  UNL1        0.2922
@<TRIPOS>BOND
     1     1     2    2
     2     2     3   am
     3     3    25    1
     4    25    31    1
     5    31    32    1
     6    32    33    2
     7    33    34    1
     8    34    35    2
     9    35    36    1
    10    36    37    1
    11    37    38    2
    12    38    39    1
    13    38    40    1
    14    40    41    2
    15    25    26    1
    16    26    27   ar
    17    27    28   ar
    18    28    29   ar
    19    29    30   ar
    20     2     5    1
    21     5     6   ar
    22     6     7   ar
    23     7     8   ar
    24     8     9   ar
    25     9    10   ar
    26     9    11   ar
    27    11    12   ar
    28    12    20    1
    29    20    21   ar
    30    21    22   ar
    31    22    23   ar
    32    23    24   ar
    33    12    13   ar
    34    13    14    1
    35    14    15    1
    36    15    16    1
    37    16    17    1
    38    17    18    1
    39    18    19    1
    40    41    32    1
    41    30    26   ar
    42    10     5   ar
    43    24    20   ar
    44    19    14    1
    45    41    35    1
    46    13     8   ar
    47     3     4    1
    48    39    42    1
@<TRIPOS>MOLECULE
*****
 42 48 0 0 0
SMALL
GASTEIGER

@<TRIPOS>ATOM
      1 O          58.8542   88.6485    6.9437 O.2     1  UNL1       -0.2701
      2 C          59.9260   89.6973    6.9058 C.2     1  UNL1        0.2461
      3 N          60.8569   89.8606    8.0705 N.am    1  UNL1       -0.2970
      4 H          61.5604   90.5489    8.0456 H       1  UNL1        0.1500
      5 C          60.0668   90.5826    5.7032 C.ar    1  UNL1        0.0550
      6 C          58.8610   91.2659    5.1296 C.ar    1  UNL1        0.0061
      7 C          59.0018   92.1513    3.9269 C.ar    1  UNL1        0.0189
      8 C          60.3485   92.3533    3.2979 C.ar    1  UNL1        0.0788
      9 C          61.5543   91.6699    3.8715 C.ar    1  UNL1        0.0988
     10 C          61.4135   90.7846    5.0741 C.ar    1  UNL1        0.0251
     11 N          62.7437   92.0558    3.0429 N.ar    1  UNL1       -0.2267
     12 C          62.2729   92.9776    1.9573 C.ar    1  UNL1        0.1469
     13 N          60.7925   93.1615    2.1149 N.ar    1  UNL1       -0.3133
     14 C          59.9111   94.0054    1.2426 C.3     1  UNL1        0.0869
     15 C          58.9243   93.3538    0.3198 C.3     1  UNL1        0.0226
     16 C          58.0428   94.1977   -0.5525 C.3     1  UNL1        0.0019
     17 C          58.1482   95.6931   -0.5020 C.3     1  UNL1        0.0001
     18 C          59.1350   96.3447    0.4208 C.3     1  UNL1        0.0019
     19 C          60.0165   95.5008    1.2931 C.3     1  UNL1        0.0226
     20 C          63.1317   93.6054    0.8998 C.ar    1  UNL1        0.0748
     21 C          62.8735   93.5766   -0.5775 C.ar    1  UNL1        0.0468
     22 C          63.9816   94.3255   -1.2565 C.ar    1  UNL1        0.1799
     23 O          64.9248   94.8173   -0.1988 O.2     1  UNL1       -0.4472
     24 C          64.3994   94.3722    1.1338 C.ar    1  UNL1        0.1827
     25 C          60.7161   88.9752    9.2731 C.3     1  UNL1        0.1170
     26 C          59.8956   89.4267   10.4449 C.ar    1  UNL1        0.0842
     27 C          59.3043   88.5406   11.5008 C.ar    1  UNL1        0.0533
     28 S          58.5656   89.4097   12.4750 S.2     1  UNL1       -0.0642
     29 C          58.7004   90.8330   12.0210 C.ar    1  UNL1        0.1342
     30 N          59.5224   90.8435   10.7663 N.ar    1  UNL1       -0.2389
     31 C          61.3959   87.6384    9.3041 C.3     1  UNL1        0.0537
     32 C          62.0593   87.1633   10.5627 C.2     1  UNL1        0.0002
     33 C          62.2000   85.7355   11.0003 C.2     1  UNL1        0.0943
     34 N          62.9262   85.7224   12.3127 N.2     1  UNL1       -0.2482
     35 C          63.2344   87.1421   12.6862 C.2     1  UNL1        0.0633
     36 C          63.9336   87.7390   13.8714 C.3     1  UNL1        0.0749
     37 C          64.0971   89.2264   13.9750 C.2     1  UNL1        0.0168
     38 C          63.5613   90.1170   12.8934 C.2     1  UNL1        0.1298
     39 O          63.7248   91.6045   12.9970 O.2     1  UNL1       -0.5058
     40 C          62.8621   89.5201   11.7082 C.2     1  UNL1        0.0372
     41 C          62.6986   88.0326   11.6046 C.2     1  UNL1        0.0145
     42 H          64.1616   91.9773   13.7373 H       1  UNL1        0.2922
@<TRIPOS>BOND
     1     1     2    2
     2     2     3   am
     3     3    25    1
     4    25    31    1
     5    31    32    1
     6    32    33    2
     7    33    34    1
     8    34    35    2
     9    35    36    1
    10    36    37    1
    11    37    38    2
    12    38    39    1
    13    38    40    1
    14    40    41    2
    15    25    26    1
    16    26    27   ar
    17    27    28   ar
    18    28    29   ar
    19    29    30   ar
    20     2     5    1
    21     5     6   ar
    22     6     7   ar
    23     7     8   ar
    24     8     9   ar
    25     9    10   ar
    26     9    11   ar
    27    11    12   ar
    28    12    20    1
    29    20    21   ar
    30    21    22   ar
    31    22    23   ar
    32    23    24   ar
    33    12    13   ar
    34    13    14    1
    35    14    15    1
    36    15    16    1
    37    16    17    1
    38    17    18    1
    39    18    19    1
    40    41    32    1
    41    30    26   ar
    42    10     5   ar
    43    24    20   ar
    44    19    14    1
    45    41    35    1
    46    13     8   ar
    47     3     4    1
    48    39    42    1
@<TRIPOS>MOLECULE
*****
 42 48 0 0 0
SMALL
GASTEIGER

@<TRIPOS>ATOM
      1 O          58.6217   89.0643    6.8113 O.2     1  UNL1       -0.2701
      2 C          59.7632   90.0274    6.6715 C.2     1  UNL1        0.2461
      3 N          60.7774   90.1527    7.7694 N.am    1  UNL1       -0.2970
      4 H          61.5266   90.7848    7.6777 H       1  UNL1        0.1500
      5 C          59.8903   90.8652    5.4338 C.ar    1  UNL1        0.0550
      6 C          58.6820   91.5443    4.8604 C.ar    1  UNL1        0.0061
      7 C          58.8091   92.3821    3.6227 C.ar    1  UNL1        0.0189
      8 C          60.1446   92.5407    2.9583 C.ar    1  UNL1        0.0788
      9 C          61.3529   91.8615    3.5317 C.ar    1  UNL1        0.0988
     10 C          61.2258   91.0238    4.7694 C.ar    1  UNL1        0.0251
     11 N          62.5294   92.1987    2.6644 N.ar    1  UNL1       -0.2267
     12 C          62.0481   93.0863    1.5550 C.ar    1  UNL1        0.1469
     13 N          60.5743   93.2976    1.7367 N.ar    1  UNL1       -0.3133
     14 C          59.6860   94.1213    0.8520 C.3     1  UNL1        0.0869
     15 C          58.6639   93.4511   -0.0174 C.3     1  UNL1        0.0226
     16 C          57.7756   94.2747   -0.9020 C.3     1  UNL1        0.0019
     17 C          57.9095   95.7686   -0.9173 C.3     1  UNL1        0.0001
     18 C          58.9317   96.4389   -0.0479 C.3     1  UNL1        0.0019
     19 C          59.8199   95.6152    0.8368 C.3     1  UNL1        0.0226
     20 C          62.8926   93.6615    0.4568 C.ar    1  UNL1        0.0748
     21 C          62.6220   93.5493   -1.0143 C.ar    1  UNL1        0.0468
     22 C          63.7180   94.2684   -1.7434 C.ar    1  UNL1        0.1799
     23 O          64.6661   94.8251   -0.7229 O.2     1  UNL1       -0.4472
     24 C          64.1558   94.4499    0.6369 C.ar    1  UNL1        0.1827
     25 C          60.6503   89.3150    9.0072 C.3     1  UNL1        0.1170
     26 C          61.0179   87.8612    8.9699 C.ar    1  UNL1        0.0842
     27 C          62.1576   87.2209    9.7055 C.ar    1  UNL1        0.0533
     28 S          62.1546   85.7565    9.3808 S.2     1  UNL1       -0.0642
     29 C          61.0130   85.4918    8.4445 C.ar    1  UNL1        0.1342
     30 N          60.3105   86.7925    8.1905 N.ar    1  UNL1       -0.2389
     31 C          60.1554   89.9310   10.2823 C.3     1  UNL1        0.0537
     32 C          61.0581   90.0080   11.4777 C.2     1  UNL1        0.0002
     33 C          60.7941   89.3985   12.8227 C.2     1  UNL1        0.0943
     34 N          61.9562   89.7219   13.7142 N.2     1  UNL1       -0.2482
     35 C          62.9385   90.5312   12.9204 C.2     1  UNL1        0.0633
     36 C          64.2666   91.1300   13.2776 C.3     1  UNL1        0.0749
     37 C          65.0396   91.9056   12.2525 C.2     1  UNL1        0.0168
     38 C          64.4845   92.0824   10.8702 C.2     1  UNL1        0.1298
     39 O          65.2577   92.8580    9.8451 O.2     1  UNL1       -0.5058
     40 C          63.1565   91.4836   10.5131 C.2     1  UNL1        0.0372
     41 C          62.3834   90.7081   11.5381 C.2     1  UNL1        0.0145
     42 H          66.0873   93.2321   10.0683 H       1  UNL1        0.2922
@<TRIPOS>BOND
     1     1     2    2
     2     2     3   am
     3     3    25    1
     4    25    31    1
     5    31    32    1
     6    32    33    2
     7    33    34    1
     8    34    35    2
     9    35    36    1
    10    36    37    1
    11    37    38    2
    12    38    39    1
    13    38    40    1
    14    40    41    2
    15    25    26    1
    16    26    27   ar
    17    27    28   ar
    18    28    29   ar
    19    29    30   ar
    20     2     5    1
    21     5     6   ar
    22     6     7   ar
    23     7     8   ar
    24     8     9   ar
    25     9    10   ar
    26     9    11   ar
    27    11    12   ar
    28    12    20    1
    29    20    21   ar
    30    21    22   ar
    31    22    23   ar
    32    23    24   ar
    33    12    13   ar
    34    13    14    1
    35    14    15    1
    36    15    16    1
    37    16    17    1
    38    17    18    1
    39    18    19    1
    40    41    32    1
    41    30    26   ar
    42    10     5   ar
    43    24    20   ar
    44    19    14    1
    45    41    35    1
    46    13     8   ar
    47     3     4    1
    48    39    42    1
@<TRIPOS>MOLECULE
*****
 42 48 0 0 0
SMALL
GASTEIGER

@<TRIPOS>ATOM
      1 O          58.1837   89.3540    6.3885 O.2     1  UNL1       -0.2701
      2 C          59.6049   89.8331    6.3623 C.2     1  UNL1        0.2461
      3 N          60.5494   89.4393    7.4591 N.am    1  UNL1       -0.2970
      4 H          61.4821   89.7538    7.4419 H       1  UNL1        0.1500
      5 C          60.0816   90.7059    5.2394 C.ar    1  UNL1        0.0550
      6 C          61.5438   90.7754    4.9123 C.ar    1  UNL1        0.0061
      7 C          62.0205   91.6482    3.7893 C.ar    1  UNL1        0.0189
      8 C          61.0349   92.4515    2.9936 C.ar    1  UNL1        0.0788
      9 C          59.5727   92.3820    3.3207 C.ar    1  UNL1        0.0988
     10 C          59.0960   91.5092    4.4436 C.ar    1  UNL1        0.0251
     11 N          58.8414   93.2809    2.3682 N.ar    1  UNL1       -0.2267
     12 C          59.8517   93.9059    1.4524 C.ar    1  UNL1        0.1469
     13 N          61.2074   93.3934    1.8389 N.ar    1  UNL1       -0.3133
     14 C          62.5073   93.7585    1.1855 C.3     1  UNL1        0.0869
     15 C          62.7224   93.4684   -0.2704 C.3     1  UNL1        0.0226
     16 C          64.0223   93.8335   -0.9238 C.3     1  UNL1        0.0019
     17 C          65.1070   94.4887   -0.1214 C.3     1  UNL1        0.0001
     18 C          64.8919   94.7789    1.3345 C.3     1  UNL1        0.0019
     19 C          63.5920   94.4137    1.9879 C.3     1  UNL1        0.0226
     20 C          59.5578   94.8737    0.3446 C.ar    1  UNL1        0.0748
     21 C          60.2246   96.2006    0.1331 C.ar    1  UNL1        0.0468
     22 C          59.6245   96.8314   -1.0883 C.ar    1  UNL1        0.1799
     23 O          58.5869   95.8943   -1.6318 O.2     1  UNL1       -0.4472
     24 C          58.5457   94.6844   -0.7461 C.ar    1  UNL1        0.1827
     25 C          60.0727   88.5665    8.5820 C.3     1  UNL1        0.1170
     26 C          59.8262   89.1574    9.9385 C.ar    1  UNL1        0.0842
     27 C          59.6813   88.3921   11.2204 C.ar    1  UNL1        0.0533
     28 S          59.4468   89.3790   12.3254 S.2     1  UNL1       -0.0642
     29 C          59.4467   90.7542   11.7264 C.ar    1  UNL1        0.1342
     30 N          59.6812   90.6173   10.2512 N.ar    1  UNL1       -0.2389
     31 C          59.8426   87.1027    8.3484 C.3     1  UNL1        0.0537
     32 C          61.0080   86.1602    8.2903 C.2     1  UNL1        0.0002
     33 C          61.6388   85.6139    7.0439 C.2     1  UNL1        0.0943
     34 N          62.7679   84.7146    7.4517 N.2     1  UNL1       -0.2482
     35 C          62.8349   84.7050    8.9502 C.2     1  UNL1        0.0633
     36 C          63.7458   83.9982    9.9096 C.3     1  UNL1        0.0749
     37 C          63.5690   84.1848   11.3874 C.2     1  UNL1        0.0168
     38 C          62.4813   85.0782   11.9057 C.2     1  UNL1        0.1298
     39 O          62.3045   85.2648   13.3836 O.2     1  UNL1       -0.5058
     40 C          61.5704   85.7851   10.9463 C.2     1  UNL1        0.0372
     41 C          61.7472   85.5984    9.4685 C.2     1  UNL1        0.0145
     42 H          62.8735   84.8233   13.9829 H       1  UNL1        0.2922
@<TRIPOS>BOND
     1     1     2    2
     2     2     3   am
     3     3    25    1
     4    25    31    1
     5    31    32    1
     6    32    33    2
     7    33    34    1
     8    34    35    2
     9    35    36    1
    10    36    37    1
    11    37    38    2
    12    38    39    1
    13    38    40    1
    14    40    41    2
    15    25    26    1
    16    26    27   ar
    17    27    28   ar
    18    28    29   ar
    19    29    30   ar
    20     2     5    1
    21     5     6   ar
    22     6     7   ar
    23     7     8   ar
    24     8     9   ar
    25     9    10   ar
    26     9    11   ar
    27    11    12   ar
    28    12    20    1
    29    20    21   ar
    30    21    22   ar
    31    22    23   ar
    32    23    24   ar
    33    12    13   ar
    34    13    14    1
    35    14    15    1
    36    15    16    1
    37    16    17    1
    38    17    18    1
    39    18    19    1
    40    41    32    1
    41    30    26   ar
    42    10     5   ar
    43    24    20   ar
    44    19    14    1
    45    41    35    1
    46    13     8   ar
    47     3     4    1
    48    39    42    1
@<TRIPOS>MOLECULE
*****
 42 48 0 0 0
SMALL
GASTEIGER

@<TRIPOS>ATOM
      1 O          64.6453   92.0370   15.3826 O.2     1  UNL1       -0.2701
      2 C          65.0242   91.6072   13.9963 C.2     1  UNL1        0.2461
      3 N          65.9889   92.4289   13.1938 N.am    1  UNL1       -0.2970
      4 H          66.2376   92.1468   12.2839 H       1  UNL1        0.1500
      5 C          64.4385   90.3556   13.4128 C.ar    1  UNL1        0.0550
      6 C          64.6433   89.0393   14.1023 C.ar    1  UNL1        0.0061
      7 C          64.0576   87.7878   13.5187 C.ar    1  UNL1        0.0189
      8 C          63.2671   87.8525   12.2457 C.ar    1  UNL1        0.0788
      9 C          63.0622   89.1688   11.5561 C.ar    1  UNL1        0.0988
     10 C          63.6479   90.4204   12.1397 C.ar    1  UNL1        0.0251
     11 N          62.2432   88.9239   10.3236 N.ar    1  UNL1       -0.2267
     12 C          61.9419   87.4562   10.2514 C.ar    1  UNL1        0.1469
     13 N          62.5747   86.7941   11.4393 N.ar    1  UNL1       -0.3133
     14 C          62.5239   85.3305   11.7638 C.3     1  UNL1        0.0869
     15 C          62.2205   84.8826   13.1628 C.3     1  UNL1        0.0226
     16 C          62.1698   83.4190   13.4874 C.3     1  UNL1        0.0019
     17 C          62.4225   82.4033   12.4129 C.3     1  UNL1        0.0001
     18 C          62.7259   82.8512   11.0139 C.3     1  UNL1        0.0019
     19 C          62.7766   84.3148   10.6894 C.3     1  UNL1        0.0226
     20 C          61.1473   86.7710    9.1794 C.ar    1  UNL1        0.0748
     21 C          61.6911   85.8354    8.1407 C.ar    1  UNL1        0.0468
     22 C          60.5493   85.3873    7.2773 C.ar    1  UNL1        0.1799
     23 O          59.2998   86.0459    7.7823 O.2     1  UNL1       -0.4472
     24 C          59.6695   86.9011    8.9579 C.ar    1  UNL1        0.1827
     25 C          66.5746   93.6804   13.7773 C.3     1  UNL1        0.1170
     26 C          67.6851   93.5913   14.7817 C.ar    1  UNL1        0.0842
     27 C          68.4708   92.3591   15.1204 C.ar    1  UNL1        0.0533
     28 S          69.4762   92.7249   16.1717 S.2     1  UNL1       -0.0642
     29 C          69.3119   94.1831   16.4827 C.ar    1  UNL1        0.1342
     30 N          68.2050   94.7185   15.6237 N.ar    1  UNL1       -0.2389
     31 C          66.0497   95.0212   13.3565 C.3     1  UNL1        0.0537
     32 C          66.2106   95.4777   11.9367 C.2     1  UNL1        0.0002
     33 C          65.7992   96.8114   11.3874 C.2     1  UNL1        0.0943
     34 N          66.1455   96.8385    9.9282 N.2     1  UNL1       -0.2482
     35 C          66.7710   95.5215    9.5757 C.2     1  UNL1        0.0633
     36 C          67.3090   94.9795    8.2847 C.3     1  UNL1        0.0749
     37 C          67.8873   93.5964    8.2351 C.2     1  UNL1        0.0168
     38 C          67.9276   92.7553    9.4764 C.2     1  UNL1        0.1298
     39 O          68.5059   91.3721    9.4268 O.2     1  UNL1       -0.5058
     40 C          67.3895   93.2973   10.7674 C.2     1  UNL1        0.0372
     41 C          66.8112   94.6804   10.8170 C.2     1  UNL1        0.0145
     42 H          68.8420   91.0335    8.6203 H       1  UNL1        0.2922
@<TRIPOS>BOND
     1     1     2    2
     2     2     3   am
     3     3    25    1
     4    25    31    1
     5    31    32    1
     6    32    33    2
     7    33    34    1
     8    34    35    2
     9    35    36    1
    10    36    37    1
    11    37    38    2
    12    38    39    1
    13    38    40    1
    14    40    41    2
    15    25    26    1
    16    26    27   ar
    17    27    28   ar
    18    28    29   ar
    19    29    30   ar
    20     2     5    1
    21     5     6   ar
    22     6     7   ar
    23     7     8   ar
    24     8     9   ar
    25     9    10   ar
    26     9    11   ar
    27    11    12   ar
    28    12    20    1
    29    20    21   ar
    30    21    22   ar
    31    22    23   ar
    32    23    24   ar
    33    12    13   ar
    34    13    14    1
    35    14    15    1
    36    15    16    1
    37    16    17    1
    38    17    18    1
    39    18    19    1
    40    41    32    1
    41    30    26   ar
    42    10     5   ar
    43    24    20   ar
    44    19    14    1
    45    41    35    1
    46    13     8   ar
    47     3     4    1
    48    39    42    1
@<TRIPOS>MOLECULE
*****
 42 48 0 0 0
SMALL
GASTEIGER

@<TRIPOS>ATOM
      1 O          58.8148   89.2578    7.1197 O.2     1  UNL1       -0.2701
      2 C          59.9927   90.1285    6.7971 C.2     1  UNL1        0.2461
      3 N          61.1365   90.2305    7.7621 N.am    1  UNL1       -0.2970
      4 H          61.9097   90.8020    7.5504 H       1  UNL1        0.1500
      5 C          60.0269   90.8973    5.5095 C.ar    1  UNL1        0.0550
      6 C          58.7608   91.4686    4.9433 C.ar    1  UNL1        0.0061
      7 C          58.7949   92.2373    3.6557 C.ar    1  UNL1        0.0189
      8 C          60.0951   92.4349    2.9344 C.ar    1  UNL1        0.0788
      9 C          61.3613   91.8636    3.5007 C.ar    1  UNL1        0.0988
     10 C          61.3271   91.0948    4.7882 C.ar    1  UNL1        0.0251
     11 N          62.4852   92.2177    2.5726 N.ar    1  UNL1       -0.2267
     12 C          61.9137   93.0078    1.4328 C.ar    1  UNL1        0.1469
     13 N          60.4365   93.1420    1.6564 N.ar    1  UNL1       -0.3133
     14 C          59.4705   93.8577    0.7595 C.3     1  UNL1        0.0869
     15 C          59.5195   95.3525    0.6450 C.3     1  UNL1        0.0226
     16 C          58.5534   96.0681   -0.2519 C.3     1  UNL1        0.0019
     17 C          57.5383   95.2890   -1.0344 C.3     1  UNL1        0.0001
     18 C          57.4892   93.7942   -0.9199 C.3     1  UNL1        0.0019
     19 C          58.4553   93.0786   -0.0230 C.3     1  UNL1        0.0226
     20 C          62.6841   93.5657    0.2729 C.ar    1  UNL1        0.0748
     21 C          64.0042   94.2738    0.3502 C.ar    1  UNL1        0.0468
     22 C          64.4057   94.6592   -1.0427 C.ar    1  UNL1        0.1799
     23 O          63.3337   94.1892   -1.9810 O.2     1  UNL1       -0.4472
     24 C          62.2698   93.5134   -1.1677 C.ar    1  UNL1        0.1827
     25 C          61.1024   89.4617    9.0496 C.3     1  UNL1        0.1170
     26 C          61.0359   87.9634    9.0270 C.ar    1  UNL1        0.0842
     27 C          62.0127   87.0276    9.6752 C.ar    1  UNL1        0.0533
     28 S          61.5614   85.6236    9.4010 S.2     1  UNL1       -0.0642
     29 C          60.3057   85.6917    8.5834 C.ar    1  UNL1        0.1342
     30 N          59.9809   87.1378    8.3522 N.ar    1  UNL1       -0.2389
     31 C          61.1348   90.1914   10.3599 C.3     1  UNL1        0.0537
     32 C          62.4203   90.7830   10.8573 C.2     1  UNL1        0.0002
     33 C          63.3811   91.6073   10.0526 C.2     1  UNL1        0.0943
     34 N          64.5253   91.9880   10.9447 N.2     1  UNL1       -0.2482
     35 C          64.2717   91.3991   12.3007 C.2     1  UNL1        0.0633
     36 C          65.0573   91.4447   13.5777 C.3     1  UNL1        0.0749
     37 C          64.5419   90.7457   14.8007 C.2     1  UNL1        0.0168
     38 C          63.2410   90.0010   14.7467 C.2     1  UNL1        0.1298
     39 O          62.7256   89.3019   15.9697 O.2     1  UNL1       -0.5058
     40 C          62.4554   89.9553   13.4697 C.2     1  UNL1        0.0372
     41 C          62.9707   90.6544   12.2467 C.2     1  UNL1        0.0145
     42 H          63.2164   89.3304   16.7674 H       1  UNL1        0.2922
@<TRIPOS>BOND
     1     1     2    2
     2     2     3   am
     3     3    25    1
     4    25    31    1
     5    31    32    1
     6    32    33    2
     7    33    34    1
     8    34    35    2
     9    35    36    1
    10    36    37    1
    11    37    38    2
    12    38    39    1
    13    38    40    1
    14    40    41    2
    15    25    26    1
    16    26    27   ar
    17    27    28   ar
    18    28    29   ar
    19    29    30   ar
    20     2     5    1
    21     5     6   ar
    22     6     7   ar
    23     7     8   ar
    24     8     9   ar
    25     9    10   ar
    26     9    11   ar
    27    11    12   ar
    28    12    20    1
    29    20    21   ar
    30    21    22   ar
    31    22    23   ar
    32    23    24   ar
    33    12    13   ar
    34    13    14    1
    35    14    15    1
    36    15    16    1
    37    16    17    1
    38    17    18    1
    39    18    19    1
    40    41    32    1
    41    30    26   ar
    42    10     5   ar
    43    24    20   ar
    44    19    14    1
    45    41    35    1
    46    13     8   ar
    47     3     4    1
    48    39    42    1
