@<TRIPOS>MOLECULE
*****
 21 23 0 0 0
SMALL
GASTEIGER

@<TRIPOS>ATOM
      1 C          65.6972   92.3211   12.5020 C.ar    1  UNL1        0.0001
      2 C          66.2839   92.2882   13.8821 C.ar    1  UNL1       -0.0003
      3 C          65.5726   91.5576   14.9823 C.ar    1  UNL1       -0.0039
      4 C          64.2746   90.8599   14.7023 C.ar    1  UNL1       -0.0178
      5 C          63.6879   90.8928   13.3221 C.ar    1  UNL1       -0.0039
      6 C          64.3992   91.6234   12.2220 C.ar    1  UNL1       -0.0003
      7 O          68.7822   92.2609    8.3212 O.3     1  UNL1       -0.5055
      8 C          67.9510   93.0215    9.3114 C.ar    1  UNL1        0.1337
      9 C          67.8311   94.5126    9.2015 C.ar    1  UNL1        0.0366
     10 C          66.9999   95.2733   10.1917 C.ar    1  UNL1        0.0031
     11 C          66.2887   94.5428   11.2919 C.ar    1  UNL1        0.0002
     12 C          66.4086   93.0516   11.4018 C.ar    1  UNL1        0.0030
     13 C          67.2397   92.2910   10.4116 C.ar    1  UNL1        0.0366
     14 H          69.2265   92.7172    7.6339 H       1  UNL1        0.2922
     15 C          63.5633   90.1294   15.8024 C.3     1  UNL1        0.0527
     16 C          63.6395   88.6334   15.8808 C.ar    1  UNL1       -0.0147
     17 C          64.3557   87.8619   14.8122 C.ar    1  UNL1        0.0167
     18 C          64.4319   86.3658   14.8907 C.ar    1  UNL1        0.0986
     19 N          63.7919   85.6414   16.0376 N.ar    1  UNL1       -0.2423
     20 C          63.0757   86.4129   17.1061 C.ar    1  UNL1        0.0986
     21 C          62.9995   87.9088   17.0277 C.ar    1  UNL1        0.0167
@<TRIPOS>BOND
     1     7     8    1
     2     8     9   ar
     3     9    10   ar
     4    10    11   ar
     5    11    12   ar
     6    12     1    1
     7     1     2   ar
     8     2     3   ar
     9     3     4   ar
    10     4    15    1
    11    15    16    1
    12    16    17   ar
    13    17    18   ar
    14    18    19   ar
    15    19    20   ar
    16    20    21   ar
    17     4     5   ar
    18     5     6   ar
    19    12    13   ar
    20    13     8   ar
    21     6     1   ar
    22    21    16   ar
    23     7    14    1
@<TRIPOS>MOLECULE
*****
 21 23 0 0 0
SMALL
GASTEIGER

@<TRIPOS>ATOM
      1 C          62.1978   88.2900   10.4177 C.ar    1  UNL1        0.0001
      2 C          62.8245   87.7739   11.6789 C.ar    1  UNL1       -0.0003
      3 C          63.3444   88.7355   12.7061 C.ar    1  UNL1       -0.0039
      4 C          63.2376   90.2133   12.4719 C.ar    1  UNL1       -0.0178
      5 C          62.6108   90.7294   11.2106 C.ar    1  UNL1       -0.0039
      6 C          62.0909   89.7678   10.1835 C.ar    1  UNL1       -0.0003
      7 O          58.2958   86.5209    7.4775 O.3     1  UNL1       -0.5055
      8 C          59.7268   86.4439    7.9204 C.ar    1  UNL1        0.1337
      9 C          60.6379   85.4053    7.3363 C.ar    1  UNL1        0.0366
     10 C          62.0689   85.3283    7.7793 C.ar    1  UNL1        0.0031
     11 C          62.5889   86.2898    8.8064 C.ar    1  UNL1        0.0002
     12 C          61.6778   87.3284    9.3905 C.ar    1  UNL1        0.0030
     13 C          60.2468   87.4054    8.9475 C.ar    1  UNL1        0.0366
     14 H          57.9710   85.9202    6.8359 H       1  UNL1        0.2922
     15 C          63.7575   91.1749   13.4990 C.3     1  UNL1        0.0527
     16 C          65.1952   91.6016   13.4670 C.ar    1  UNL1       -0.0147
     17 C          66.0992   91.2784   14.6195 C.ar    1  UNL1        0.0167
     18 C          67.5370   91.7052   14.5874 C.ar    1  UNL1        0.0986
     19 N          68.0705   92.4550   13.4030 N.ar    1  UNL1       -0.2423
     20 C          67.1665   92.7782   12.2505 C.ar    1  UNL1        0.0986
     21 C          65.7288   92.3515   12.2825 C.ar    1  UNL1        0.0167
@<TRIPOS>BOND
     1     7     8    1
     2     8     9   ar
     3     9    10   ar
     4    10    11   ar
     5    11    12   ar
     6    12     1    1
     7     1     2   ar
     8     2     3   ar
     9     3     4   ar
    10     4    15    1
    11    15    16    1
    12    16    17   ar
    13    17    18   ar
    14    18    19   ar
    15    19    20   ar
    16    20    21   ar
    17     4     5   ar
    18     5     6   ar
    19    12    13   ar
    20    13     8   ar
    21     6     1   ar
    22    21    16   ar
    23     7    14    1
@<TRIPOS>MOLECULE
*****
 21 23 0 0 0
SMALL
GASTEIGER

@<TRIPOS>ATOM
      1 C          63.5007   86.1068   13.2424 C.ar    1  UNL1        0.0001
      2 C          63.0385   87.1609   12.2807 C.ar    1  UNL1       -0.0003
      3 C          63.2372   88.6118   12.6057 C.ar    1  UNL1       -0.0039
      4 C          63.8981   89.0084   13.8925 C.ar    1  UNL1       -0.0178
      5 C          64.3603   87.9541   14.8543 C.ar    1  UNL1       -0.0039
      6 C          64.1616   86.5034   14.5292 C.ar    1  UNL1       -0.0003
      7 O          62.2469   81.2909   14.7377 O.3     1  UNL1       -0.5055
      8 C          62.6752   82.2480   13.6650 C.ar    1  UNL1        0.1337
      9 C          62.9048   81.7543   12.2674 C.ar    1  UNL1        0.0366
     10 C          63.3330   82.7114   11.1947 C.ar    1  UNL1        0.0031
     11 C          63.5317   84.1622   11.5197 C.ar    1  UNL1        0.0002
     12 C          63.3021   84.6559   12.9174 C.ar    1  UNL1        0.0030
     13 C          62.8738   83.6988   13.9900 C.ar    1  UNL1        0.0366
     14 H          62.1228   80.3847   14.5347 H       1  UNL1        0.2922
     15 C          64.0967   90.4592   14.2176 C.3     1  UNL1        0.0527
     16 C          65.2207   91.2229   13.5826 C.ar    1  UNL1       -0.0147
     17 C          66.5588   91.2879   14.2574 C.ar    1  UNL1        0.0167
     18 C          67.6828   92.0517   13.6223 C.ar    1  UNL1        0.0986
     19 N          67.4687   92.7505   12.3124 N.ar    1  UNL1       -0.2423
     20 C          66.1306   92.6856   11.6376 C.ar    1  UNL1        0.0986
     21 C          65.0067   91.9218   12.2727 C.ar    1  UNL1        0.0167
@<TRIPOS>BOND
     1     7     8    1
     2     8     9   ar
     3     9    10   ar
     4    10    11   ar
     5    11    12   ar
     6    12     1    1
     7     1     2   ar
     8     2     3   ar
     9     3     4   ar
    10     4    15    1
    11    15    16    1
    12    16    17   ar
    13    17    18   ar
    14    18    19   ar
    15    19    20   ar
    16    20    21   ar
    17     4     5   ar
    18     5     6   ar
    19    12    13   ar
    20    13     8   ar
    21     6     1   ar
    22    21    16   ar
    23     7    14    1
@<TRIPOS>MOLECULE
*****
 21 23 0 0 0
SMALL
GASTEIGER

@<TRIPOS>ATOM
      1 C          62.9766   88.9020   12.1833 C.ar    1  UNL1        0.0001
      2 C          63.6373   88.1932   13.3283 C.ar    1  UNL1       -0.0003
      3 C          64.3273   88.9825   14.4013 C.ar    1  UNL1       -0.0039
      4 C          64.3565   90.4805   14.3291 C.ar    1  UNL1       -0.0178
      5 C          63.6957   91.1892   13.1840 C.ar    1  UNL1       -0.0039
      6 C          63.0058   90.3999   12.1111 C.ar    1  UNL1       -0.0003
      7 O          59.9293   88.7301    7.9780 O.3     1  UNL1       -0.5055
      8 C          60.7629   88.0269    9.0078 C.ar    1  UNL1        0.1337
      9 C          60.9067   86.5344    8.9646 C.ar    1  UNL1        0.0366
     10 C          61.7404   85.8311    9.9943 C.ar    1  UNL1        0.0031
     11 C          62.4303   86.6203   11.0672 C.ar    1  UNL1        0.0002
     12 C          62.2866   88.1127   11.1104 C.ar    1  UNL1        0.0030
     13 C          61.4529   88.8160   10.0806 C.ar    1  UNL1        0.0366
     14 H          59.4983   88.2372    7.3078 H       1  UNL1        0.2922
     15 C          65.0464   91.2697   15.4019 C.3     1  UNL1        0.0527
     16 C          66.4046   91.8534   15.1476 C.ar    1  UNL1       -0.0147
     17 C          66.9764   92.8639   16.0973 C.ar    1  UNL1        0.0167
     18 C          68.3346   93.4476   15.8430 C.ar    1  UNL1        0.0986
     19 N          69.1209   93.0208   14.6390 N.ar    1  UNL1       -0.2423
     20 C          68.5491   92.0103   13.6893 C.ar    1  UNL1        0.0986
     21 C          67.1909   91.4266   13.9436 C.ar    1  UNL1        0.0167
@<TRIPOS>BOND
     1     7     8    1
     2     8     9   ar
     3     9    10   ar
     4    10    11   ar
     5    11    12   ar
     6    12     1    1
     7     1     2   ar
     8     2     3   ar
     9     3     4   ar
    10     4    15    1
    11    15    16    1
    12    16    17   ar
    13    17    18   ar
    14    18    19   ar
    15    19    20   ar
    16    20    21   ar
    17     4     5   ar
    18     5     6   ar
    19    12    13   ar
    20    13     8   ar
    21     6     1   ar
    22    21    16   ar
    23     7    14    1
@<TRIPOS>MOLECULE
*****
 21 23 0 0 0
SMALL
GASTEIGER

@<TRIPOS>ATOM
      1 C          62.8757   89.8727   10.9144 C.ar    1  UNL1        0.0001
      2 C          63.3113   89.8214   12.3488 C.ar    1  UNL1       -0.0003
      3 C          64.2071   90.8913   12.8993 C.ar    1  UNL1       -0.0039
      4 C          64.6674   92.0124   12.0154 C.ar    1  UNL1       -0.0178
      5 C          64.2317   92.0636   10.5809 C.ar    1  UNL1       -0.0039
      6 C          63.3360   90.9938   10.0304 C.ar    1  UNL1       -0.0003
      7 O          59.0750   88.4054    7.6893 O.3     1  UNL1       -0.5055
      8 C          60.0795   88.0693    8.7513 C.ar    1  UNL1        0.1337
      9 C          60.1883   86.6634    9.2627 C.ar    1  UNL1        0.0366
     10 C          61.1929   86.3273   10.3247 C.ar    1  UNL1        0.0031
     11 C          62.0887   87.3970   10.8753 C.ar    1  UNL1        0.0002
     12 C          61.9799   88.8029   10.3638 C.ar    1  UNL1        0.0030
     13 C          60.9753   89.1390    9.3018 C.ar    1  UNL1        0.0366
     14 H          58.5154   87.7372    7.3453 H       1  UNL1        0.2922
     15 C          65.5631   93.0822   12.5659 C.3     1  UNL1        0.0527
     16 C          66.5180   92.7621   13.6775 C.ar    1  UNL1       -0.0147
     17 C          67.8269   92.0956   13.3734 C.ar    1  UNL1        0.0167
     18 C          68.7817   91.7756   14.4851 C.ar    1  UNL1        0.0986
     19 N          68.4277   92.1221   15.9009 N.ar    1  UNL1       -0.2423
     20 C          67.1188   92.7886   16.2051 C.ar    1  UNL1        0.0986
     21 C          66.1639   93.1086   15.0934 C.ar    1  UNL1        0.0167
@<TRIPOS>BOND
     1     7     8    1
     2     8     9   ar
     3     9    10   ar
     4    10    11   ar
     5    11    12   ar
     6    12     1    1
     7     1     2   ar
     8     2     3   ar
     9     3     4   ar
    10     4    15    1
    11    15    16    1
    12    16    17   ar
    13    17    18   ar
    14    18    19   ar
    15    19    20   ar
    16    20    21   ar
    17     4     5   ar
    18     5     6   ar
    19    12    13   ar
    20    13     8   ar
    21     6     1   ar
    22    21    16   ar
    23     7    14    1
@<TRIPOS>MOLECULE
*****
 21 23 0 0 0
SMALL
GASTEIGER

@<TRIPOS>ATOM
      1 C          63.5891   86.2883   13.2791 C.ar    1  UNL1        0.0001
      2 C          63.0196   87.1649   12.2034 C.ar    1  UNL1       -0.0003
      3 C          63.1086   88.6572   12.3265 C.ar    1  UNL1       -0.0039
      4 C          63.7672   89.2728   13.5254 C.ar    1  UNL1       -0.0178
      5 C          64.3367   88.3961   14.6011 C.ar    1  UNL1       -0.0039
      6 C          64.2477   86.9039   14.4779 C.ar    1  UNL1       -0.0003
      7 O          63.8447   81.9897   10.3709 O.3     1  UNL1       -0.5055
      8 C          63.6279   82.6467   11.7019 C.ar    1  UNL1        0.1337
      9 C          63.3219   81.8114   12.9096 C.ar    1  UNL1        0.0366
     10 C          63.1051   82.4684   14.2405 C.ar    1  UNL1        0.0031
     11 C          63.1941   83.9607   14.3637 C.ar    1  UNL1        0.0002
     12 C          63.5000   84.7959   13.1559 C.ar    1  UNL1        0.0030
     13 C          63.7169   84.1389   11.8250 C.ar    1  UNL1        0.0366
     14 H          63.7891   81.0575   10.2940 H       1  UNL1        0.2922
     15 C          63.8563   90.7651   13.6485 C.3     1  UNL1        0.0527
     16 C          65.1926   91.4253   13.8165 C.ar    1  UNL1       -0.0147
     17 C          66.0118   91.7780   12.6105 C.ar    1  UNL1        0.0167
     18 C          67.3483   92.4382   12.7786 C.ar    1  UNL1        0.0986
     19 N          67.8654   92.7457   14.1526 N.ar    1  UNL1       -0.2423
     20 C          67.0461   92.3930   15.3586 C.ar    1  UNL1        0.0986
     21 C          65.7098   91.7328   15.1906 C.ar    1  UNL1        0.0167
@<TRIPOS>BOND
     1     7     8    1
     2     8     9   ar
     3     9    10   ar
     4    10    11   ar
     5    11    12   ar
     6    12     1    1
     7     1     2   ar
     8     2     3   ar
     9     3     4   ar
    10     4    15    1
    11    15    16    1
    12    16    17   ar
    13    17    18   ar
    14    18    19   ar
    15    19    20   ar
    16    20    21   ar
    17     4     5   ar
    18     5     6   ar
    19    12    13   ar
    20    13     8   ar
    21     6     1   ar
    22    21    16   ar
    23     7    14    1
@<TRIPOS>MOLECULE
*****
 21 23 0 0 0
SMALL
GASTEIGER

@<TRIPOS>ATOM
      1 C          63.5051   85.5236   13.3817 C.ar    1  UNL1        0.0001
      2 C          63.0584   86.5404   12.3736 C.ar    1  UNL1       -0.0003
      3 C          63.3122   87.9988   12.6162 C.ar    1  UNL1       -0.0039
      4 C          64.0127   88.4402   13.8669 C.ar    1  UNL1       -0.0178
      5 C          64.4595   87.4233   14.8751 C.ar    1  UNL1       -0.0039
      6 C          64.2057   85.9650   14.6324 C.ar    1  UNL1       -0.0003
      7 O          63.5924   81.4071   10.2119 O.3     1  UNL1       -0.5055
      8 C          63.2950   82.0070   11.5542 C.ar    1  UNL1        0.1337
      9 C          62.7438   81.1486   12.6538 C.ar    1  UNL1        0.0366
     10 C          62.4464   81.7485   13.9961 C.ar    1  UNL1        0.0031
     11 C          62.7002   83.2068   14.2387 C.ar    1  UNL1        0.0002
     12 C          63.2513   84.0652   13.1391 C.ar    1  UNL1        0.0030
     13 C          63.5488   83.4653   11.7968 C.ar    1  UNL1        0.0366
     14 H          63.4339   80.4962   10.0604 H       1  UNL1        0.2922
     15 C          64.2665   89.8985   14.1096 C.3     1  UNL1        0.0527
     16 C          64.4727   90.8270   12.9497 C.ar    1  UNL1       -0.0147
     17 C          63.5509   90.7669   11.7678 C.ar    1  UNL1        0.0167
     18 C          63.7571   91.6955   10.6079 C.ar    1  UNL1        0.0986
     19 N          64.8850   92.6841   10.6299 N.ar    1  UNL1       -0.2423
     20 C          65.8068   92.7441   11.8117 C.ar    1  UNL1        0.0986
     21 C          65.6006   91.8157   12.9716 C.ar    1  UNL1        0.0167
@<TRIPOS>BOND
     1     7     8    1
     2     8     9   ar
     3     9    10   ar
     4    10    11   ar
     5    11    12   ar
     6    12     1    1
     7     1     2   ar
     8     2     3   ar
     9     3     4   ar
    10     4    15    1
    11    15    16    1
    12    16    17   ar
    13    17    18   ar
    14    18    19   ar
    15    19    20   ar
    16    20    21   ar
    17     4     5   ar
    18     5     6   ar
    19    12    13   ar
    20    13     8   ar
    21     6     1   ar
    22    21    16   ar
    23     7    14    1
@<TRIPOS>MOLECULE
*****
 21 23 0 0 0
SMALL
GASTEIGER

@<TRIPOS>ATOM
      1 C          59.6831   89.1284    7.5681 C.ar    1  UNL1        0.0001
      2 C          59.3283   87.6712    7.5428 C.ar    1  UNL1       -0.0003
      3 C          59.7763   86.7708    8.6558 C.ar    1  UNL1       -0.0039
      4 C          60.5790   87.3276    9.7940 C.ar    1  UNL1       -0.0178
      5 C          60.9337   88.7849    9.8193 C.ar    1  UNL1       -0.0039
      6 C          60.4858   89.6852    8.7064 C.ar    1  UNL1       -0.0003
      7 O          55.8598   91.3538    4.8423 O.3     1  UNL1       -0.5055
      8 C          57.3235   91.1415    5.0922 C.ar    1  UNL1        0.1337
      9 C          58.3393   91.8296    4.2293 C.ar    1  UNL1        0.0366
     10 C          59.8030   91.6173    4.4793 C.ar    1  UNL1        0.0031
     11 C          60.2509   90.7169    5.5922 C.ar    1  UNL1        0.0002
     12 C          59.2352   90.0288    6.4551 C.ar    1  UNL1        0.0030
     13 C          57.7715   90.2411    6.2052 C.ar    1  UNL1        0.0366
     14 H          55.5800   91.9162    4.1471 H       1  UNL1        0.2922
     15 C          61.0269   86.4273   10.9070 C.3     1  UNL1        0.0527
     16 C          62.0777   85.3874   10.6535 C.ar    1  UNL1       -0.0147
     17 C          62.5187   84.4805   11.7640 C.ar    1  UNL1        0.0167
     18 C          63.5696   83.4405   11.5105 C.ar    1  UNL1        0.0986
     19 N          64.1794   83.3074   10.1466 N.ar    1  UNL1       -0.2423
     20 C          63.7384   84.2143    9.0361 C.ar    1  UNL1        0.0986
     21 C          62.6876   85.2542    9.2895 C.ar    1  UNL1        0.0167
@<TRIPOS>BOND
     1     7     8    1
     2     8     9   ar
     3     9    10   ar
     4    10    11   ar
     5    11    12   ar
     6    12     1    1
     7     1     2   ar
     8     2     3   ar
     9     3     4   ar
    10     4    15    1
    11    15    16    1
    12    16    17   ar
    13    17    18   ar
    14    18    19   ar
    15    19    20   ar
    16    20    21   ar
    17     4     5   ar
    18     5     6   ar
    19    12    13   ar
    20    13     8   ar
    21     6     1   ar
    22    21    16   ar
    23     7    14    1
@<TRIPOS>MOLECULE
*****
 21 23 0 0 0
SMALL
GASTEIGER

@<TRIPOS>ATOM
      1 C          63.6278   87.7408   13.0892 C.ar    1  UNL1        0.0001
      2 C          63.0662   86.5373   12.3919 C.ar    1  UNL1       -0.0003
      3 C          63.1360   85.1900   13.0477 C.ar    1  UNL1       -0.0039
      4 C          63.7674   85.0463   14.4007 C.ar    1  UNL1       -0.0178
      5 C          64.3290   86.2498   15.0980 C.ar    1  UNL1       -0.0039
      6 C          64.2592   87.5970   14.4422 C.ar    1  UNL1       -0.0003
      7 O          64.9721   92.7585   12.9618 O.3     1  UNL1       -0.5055
      8 C          64.2302   91.5969   12.3698 C.ar    1  UNL1        0.1337
      9 C          63.4186   91.7827   11.1221 C.ar    1  UNL1        0.0366
     10 C          62.6768   90.6211   10.5301 C.ar    1  UNL1        0.0031
     11 C          62.7465   89.2739   11.1857 C.ar    1  UNL1        0.0002
     12 C          63.5581   89.0881   12.4334 C.ar    1  UNL1        0.0030
     13 C          64.2999   90.2497   13.0255 C.ar    1  UNL1        0.0366
     14 H          64.9285   93.6001   12.5522 H       1  UNL1        0.2922
     15 C          63.8371   83.6990   15.0565 C.3     1  UNL1        0.0527
     16 C          63.1911   82.5130   14.4039 C.ar    1  UNL1       -0.0147
     17 C          61.7681   82.1632   14.7245 C.ar    1  UNL1        0.0167
     18 C          61.1221   80.9770   14.0719 C.ar    1  UNL1        0.0986
     19 N          61.8990   80.1408   13.0988 N.ar    1  UNL1       -0.2423
     20 C          63.3220   80.4906   12.7782 C.ar    1  UNL1        0.0986
     21 C          63.9681   81.6766   13.4308 C.ar    1  UNL1        0.0167
@<TRIPOS>BOND
     1     7     8    1
     2     8     9   ar
     3     9    10   ar
     4    10    11   ar
     5    11    12   ar
     6    12     1    1
     7     1     2   ar
     8     2     3   ar
     9     3     4   ar
    10     4    15    1
    11    15    16    1
    12    16    17   ar
    13    17    18   ar
    14    18    19   ar
    15    19    20   ar
    16    20    21   ar
    17     4     5   ar
    18     5     6   ar
    19    12    13   ar
    20    13     8   ar
    21     6     1   ar
    22    21    16   ar
    23     7    14    1
