@<TRIPOS>MOLECULE
*****
 28 30 0 0 0
SMALL
GASTEIGER

@<TRIPOS>ATOM
      1 N          62.7612   83.5939   15.0543 N.pl3   1  UNL1       -0.3039
      2 H          62.9130   82.6760   15.3762 H       1  UNL1        0.1496
      3 C          64.3290   81.7905   13.2406 C.3     1  UNL1        0.1363
      4 N          63.6358   82.9977   12.6816 N.ar    1  UNL1       -0.2669
      5 C          62.8520   83.8994   13.5885 C.ar    1  UNL1        0.2002
      6 N          62.1588   85.1065   13.0297 N.ar    1  UNL1       -0.2150
      7 C          62.2495   85.4120   11.5638 C.ar    1  UNL1        0.0895
      8 C          61.5563   86.6191   11.0050 C.ar    1  UNL1        0.0307
      9 C          61.6471   86.9245    9.5392 C.ar    1  UNL1        0.0592
     10 CL         60.9539   88.1316    8.9803 Cl      1  UNL1       -0.0822
     11 C          62.4310   86.0228    8.6324 C.ar    1  UNL1        0.0116
     12 C          63.1241   84.8157    9.1912 C.ar    1  UNL1        0.0071
     13 C          63.0334   84.5103   10.6570 C.ar    1  UNL1        0.0740
     14 C          63.7266   83.3031   11.2159 C.ar    1  UNL1        0.2643
     15 O          64.5105   82.4014   10.3090 O.2     1  UNL1       -0.2668
     16 C          62.4392   84.6870   16.0297 C.3     1  UNL1        0.0942
     17 C          63.5317   85.5732   16.5506 C.3     1  UNL1        0.0476
     18 C          63.6345   86.9934   16.0787 C.ar    1  UNL1       -0.0203
     19 C          64.3068   87.3034   14.7741 C.ar    1  UNL1       -0.0011
     20 C          64.4096   88.7235   14.3022 C.ar    1  UNL1        0.0369
     21 C          63.8402   89.8335   15.1349 C.ar    1  UNL1        0.1468
     22 C          63.1680   89.5235   16.4395 C.ar    1  UNL1        0.0369
     23 C          63.0651   88.1034   16.9114 C.ar    1  UNL1       -0.0011
     24 O          63.9431   91.2537   14.6631 O.3     1  UNL1       -0.4045
     25 C          64.9180   91.6162   13.5823 C.3     1  UNL1        0.5753
     26 F          65.8930   91.9786   12.5015 F       1  UNL1       -0.1328
     27 F          63.8064   91.6033   12.5752 F       1  UNL1       -0.1328
     28 F          66.0296   91.6290   14.5894 F       1  UNL1       -0.1328
@<TRIPOS>BOND
     1     3     4    1
     2     4     5   ar
     3     5     1    1
     4     1    16    1
     5    16    17    1
     6    17    18    1
     7    18    19   ar
     8    19    20   ar
     9    20    21   ar
    10    21    24    1
    11    24    25    1
    12    25    26    1
    13    25    27    1
    14    25    28    1
    15    21    22   ar
    16    22    23   ar
    17     5     6   ar
    18     6     7   ar
    19     7     8   ar
    20     8     9   ar
    21     9    10    1
    22     9    11   ar
    23    11    12   ar
    24    12    13   ar
    25    13    14   ar
    26    14    15    2
    27    14     4   ar
    28    23    18   ar
    29    13     7   ar
    30     1     2    1
@<TRIPOS>MOLECULE
*****
 28 30 0 0 0
SMALL
GASTEIGER

@<TRIPOS>ATOM
      1 N          60.1735   88.4054   11.3778 N.pl3   1  UNL1       -0.3039
      2 H          59.2102   88.2937   11.5478 H       1  UNL1        0.1496
      3 C          60.4032   87.8410    8.4403 C.3     1  UNL1        0.1363
      4 N          61.1054   86.9597    9.4305 N.ar    1  UNL1       -0.2669
      5 C          60.9905   87.2419   10.8993 C.ar    1  UNL1        0.2002
      6 N          61.6926   86.3608   11.8895 N.ar    1  UNL1       -0.2150
      7 C          62.5097   85.1973   11.4109 C.ar    1  UNL1        0.0895
      8 C          63.2118   84.3162   12.4011 C.ar    1  UNL1        0.0307
      9 C          64.0288   83.1528   11.9226 C.ar    1  UNL1        0.0592
     10 CL         64.7310   82.2715   12.9128 Cl      1  UNL1       -0.0822
     11 C          64.1436   82.8706   10.4538 C.ar    1  UNL1        0.0116
     12 C          63.4415   83.7517    9.4636 C.ar    1  UNL1        0.0071
     13 C          62.6245   84.9151    9.9422 C.ar    1  UNL1        0.0740
     14 C          61.9224   85.7964    8.9520 C.ar    1  UNL1        0.2643
     15 O          62.0372   85.5142    7.4833 O.2     1  UNL1       -0.2668
     16 C          60.8241   89.7390   11.5972 C.3     1  UNL1        0.0942
     17 C          61.9593   90.1733   10.7183 C.3     1  UNL1        0.0476
     18 C          63.1421   90.8777   11.3140 C.ar    1  UNL1       -0.0203
     19 C          63.9832   91.7823   10.4630 C.ar    1  UNL1       -0.0011
     20 C          65.1660   92.4866   11.0586 C.ar    1  UNL1        0.0369
     21 C          65.5077   92.2863   12.5054 C.ar    1  UNL1        0.1468
     22 C          64.6666   91.3818   13.3564 C.ar    1  UNL1        0.0369
     23 C          63.4838   90.6774   12.7608 C.ar    1  UNL1       -0.0011
     24 O          66.6905   92.9907   13.1011 O.3     1  UNL1       -0.4045
     25 C          67.4346   92.3699   14.2461 C.3     1  UNL1        0.5753
     26 F          68.1787   91.7491   15.3911 F       1  UNL1       -0.1328
     27 F          68.1692   91.4810   13.2868 F       1  UNL1       -0.1328
     28 F          66.7000   93.2587   15.2054 F       1  UNL1       -0.1328
@<TRIPOS>BOND
     1     3     4    1
     2     4     5   ar
     3     5     1    1
     4     1    16    1
     5    16    17    1
     6    17    18    1
     7    18    19   ar
     8    19    20   ar
     9    20    21   ar
    10    21    24    1
    11    24    25    1
    12    25    26    1
    13    25    27    1
    14    25    28    1
    15    21    22   ar
    16    22    23   ar
    17     5     6   ar
    18     6     7   ar
    19     7     8   ar
    20     8     9   ar
    21     9    10    1
    22     9    11   ar
    23    11    12   ar
    24    12    13   ar
    25    13    14   ar
    26    14    15    2
    27    14     4   ar
    28    23    18   ar
    29    13     7   ar
    30     1     2    1
@<TRIPOS>MOLECULE
*****
 28 30 0 0 0
SMALL
GASTEIGER

@<TRIPOS>ATOM
      1 N          60.2992   90.0594    9.5677 N.pl3   1  UNL1       -0.3039
      2 H          59.5002   90.6337    9.5360 H       1  UNL1        0.1496
      3 C          60.1201   89.1510   12.4213 C.3     1  UNL1        0.1363
      4 N          61.3208   89.9182   11.9524 N.ar    1  UNL1       -0.2669
      5 C          61.4104   90.3724   10.5256 C.ar    1  UNL1        0.2002
      6 N          62.6110   91.1396   10.0567 N.ar    1  UNL1       -0.2150
      7 C          63.7221   91.4526   11.0146 C.ar    1  UNL1        0.0895
      8 C          64.9227   92.2198   10.5456 C.ar    1  UNL1        0.0307
      9 C          66.0338   92.5328   11.5035 C.ar    1  UNL1        0.0592
     10 CL         67.2345   93.3000   11.0346 Cl      1  UNL1       -0.0822
     11 C          65.9442   92.0786   12.9303 C.ar    1  UNL1        0.0116
     12 C          64.7436   91.3114   13.3992 C.ar    1  UNL1        0.0071
     13 C          63.6326   90.9984   12.4413 C.ar    1  UNL1        0.0740
     14 C          62.4319   90.2312   12.9102 C.ar    1  UNL1        0.2643
     15 O          62.3423   89.7771   14.3370 O.2     1  UNL1       -0.2668
     16 C          60.4055   88.8713    8.6582 C.3     1  UNL1        0.0942
     17 C          60.0298   87.5080    9.1584 C.3     1  UNL1        0.0476
     18 C          61.0969   86.4921    9.4400 C.ar    1  UNL1       -0.0203
     19 C          61.9510   85.9718    8.3220 C.ar    1  UNL1       -0.0011
     20 C          63.0181   84.9560    8.6036 C.ar    1  UNL1        0.0369
     21 C          63.2310   84.4603   10.0032 C.ar    1  UNL1        0.1468
     22 C          62.3770   84.9805   11.1212 C.ar    1  UNL1        0.0369
     23 C          61.3099   85.9964   10.8396 C.ar    1  UNL1       -0.0011
     24 O          64.2981   83.4444   10.2849 O.3     1  UNL1       -0.4045
     25 C          64.0926   82.4194   11.3605 C.3     1  UNL1        0.5753
     26 F          63.8871   81.3943   12.4362 F       1  UNL1       -0.1328
     27 F          63.3821   81.5334   10.3805 F       1  UNL1       -0.1328
     28 F          64.8031   83.3053   12.3405 F       1  UNL1       -0.1328
@<TRIPOS>BOND
     1     3     4    1
     2     4     5   ar
     3     5     1    1
     4     1    16    1
     5    16    17    1
     6    17    18    1
     7    18    19   ar
     8    19    20   ar
     9    20    21   ar
    10    21    24    1
    11    24    25    1
    12    25    26    1
    13    25    27    1
    14    25    28    1
    15    21    22   ar
    16    22    23   ar
    17     5     6   ar
    18     6     7   ar
    19     7     8   ar
    20     8     9   ar
    21     9    10    1
    22     9    11   ar
    23    11    12   ar
    24    12    13   ar
    25    13    14   ar
    26    14    15    2
    27    14     4   ar
    28    23    18   ar
    29    13     7   ar
    30     1     2    1
@<TRIPOS>MOLECULE
*****
 28 30 0 0 0
SMALL
GASTEIGER

@<TRIPOS>ATOM
      1 N          64.2651   88.0667   14.4065 N.pl3   1  UNL1       -0.3039
      2 H          64.9768   87.5399   14.8368 H       1  UNL1        0.1496
      3 C          64.0896   85.0925   14.0553 C.3     1  UNL1        0.1363
      4 N          63.4129   86.0047   13.0754 N.ar    1  UNL1       -0.2669
      5 C          63.5007   87.4918   13.2510 C.ar    1  UNL1        0.2002
      6 N          62.8240   88.4040   12.2712 N.ar    1  UNL1       -0.2150
      7 C          62.0595   87.8290   11.1157 C.ar    1  UNL1        0.0895
      8 C          61.3829   88.7412   10.1359 C.ar    1  UNL1        0.0307
      9 C          60.6184   88.1663    8.9805 C.ar    1  UNL1        0.0592
     10 CL         59.9417   89.0784    8.0006 Cl      1  UNL1       -0.0822
     11 C          60.5307   86.6792    8.8049 C.ar    1  UNL1        0.0116
     12 C          61.2073   85.7670    9.7847 C.ar    1  UNL1        0.0071
     13 C          61.9717   86.3419   10.9401 C.ar    1  UNL1        0.0740
     14 C          62.6484   85.4298   11.9200 C.ar    1  UNL1        0.2643
     15 O          62.5607   83.9427   11.7444 O.2     1  UNL1       -0.2668
     16 C          63.9453   89.4443   14.9064 C.3     1  UNL1        0.0942
     17 C          63.5250   90.5133   13.9417 C.3     1  UNL1        0.0476
     18 C          64.5585   91.2537   13.1457 C.ar    1  UNL1       -0.0203
     19 C          65.8763   91.6050   13.7701 C.ar    1  UNL1       -0.0011
     20 C          66.9098   92.3454   12.9741 C.ar    1  UNL1        0.0369
     21 C          66.6256   92.7344   11.5537 C.ar    1  UNL1        0.1468
     22 C          65.3078   92.3830   10.9292 C.ar    1  UNL1        0.0369
     23 C          64.2743   91.6427   11.7252 C.ar    1  UNL1       -0.0011
     24 O          67.6591   93.4748   10.7576 O.3     1  UNL1       -0.4045
     25 C          68.1954   92.8813    9.4886 C.3     1  UNL1        0.5753
     26 F          68.7316   92.2878    8.2197 F       1  UNL1       -0.1328
     27 F          67.9801   94.1890    8.7861 F       1  UNL1       -0.1328
     28 F          68.4106   91.5736   10.1912 F       1  UNL1       -0.1328
@<TRIPOS>BOND
     1     3     4    1
     2     4     5   ar
     3     5     1    1
     4     1    16    1
     5    16    17    1
     6    17    18    1
     7    18    19   ar
     8    19    20   ar
     9    20    21   ar
    10    21    24    1
    11    24    25    1
    12    25    26    1
    13    25    27    1
    14    25    28    1
    15    21    22   ar
    16    22    23   ar
    17     5     6   ar
    18     6     7   ar
    19     7     8   ar
    20     8     9   ar
    21     9    10    1
    22     9    11   ar
    23    11    12   ar
    24    12    13   ar
    25    13    14   ar
    26    14    15    2
    27    14     4   ar
    28    23    18   ar
    29    13     7   ar
    30     1     2    1
@<TRIPOS>MOLECULE
*****
 28 30 0 0 0
SMALL
GASTEIGER

@<TRIPOS>ATOM
      1 N          61.5660   87.0364    9.3751 N.pl3   1  UNL1       -0.3039
      2 H          61.5141   86.9332    8.3974 H       1  UNL1        0.1496
      3 C          63.2179   84.8981    8.0716 C.3     1  UNL1        0.1363
      4 N          63.0213   84.8920    9.5587 N.ar    1  UNL1       -0.2669
      5 C          62.1953   85.9611   10.2105 C.ar    1  UNL1        0.2002
      6 N          61.9987   85.9549   11.6975 N.ar    1  UNL1       -0.2150
      7 C          62.6281   84.8796   12.5328 C.ar    1  UNL1        0.0895
      8 C          62.4314   84.8735   14.0198 C.ar    1  UNL1        0.0307
      9 C          63.0608   83.7982   14.8551 C.ar    1  UNL1        0.0592
     10 CL         62.8642   83.7921   16.3422 Cl      1  UNL1       -0.0822
     11 C          63.8868   82.7291   14.2033 C.ar    1  UNL1        0.0116
     12 C          64.0834   82.7353   12.7163 C.ar    1  UNL1        0.0071
     13 C          63.4540   83.8105   11.8811 C.ar    1  UNL1        0.0740
     14 C          63.6506   83.8167   10.3940 C.ar    1  UNL1        0.2643
     15 O          64.4766   82.7476    9.7422 O.2     1  UNL1       -0.2668
     16 C          61.0157   88.2688   10.0294 C.3     1  UNL1        0.0942
     17 C          61.5992   89.6127    9.7080 C.3     1  UNL1        0.0476
     18 C          62.5281   90.2788   10.6795 C.ar    1  UNL1       -0.0203
     19 C          62.5414   89.8521   12.1175 C.ar    1  UNL1       -0.0011
     20 C          63.4701   90.5181   13.0889 C.ar    1  UNL1        0.0369
     21 C          64.3856   91.6109   12.6224 C.ar    1  UNL1        0.1468
     22 C          64.3723   92.0376   11.1844 C.ar    1  UNL1        0.0369
     23 C          63.4436   91.3716   10.2130 C.ar    1  UNL1       -0.0011
     24 O          65.3144   92.2770   13.5938 O.3     1  UNL1       -0.4045
     25 C          66.7784   91.9508   13.5758 C.3     1  UNL1        0.5753
     26 F          68.2424   91.6246   13.5578 F       1  UNL1       -0.1328
     27 F          66.5486   90.8636   14.5834 F       1  UNL1       -0.1328
     28 F          67.0083   93.0380   12.5682 F       1  UNL1       -0.1328
@<TRIPOS>BOND
     1     3     4    1
     2     4     5   ar
     3     5     1    1
     4     1    16    1
     5    16    17    1
     6    17    18    1
     7    18    19   ar
     8    19    20   ar
     9    20    21   ar
    10    21    24    1
    11    24    25    1
    12    25    26    1
    13    25    27    1
    14    25    28    1
    15    21    22   ar
    16    22    23   ar
    17     5     6   ar
    18     6     7   ar
    19     7     8   ar
    20     8     9   ar
    21     9    10    1
    22     9    11   ar
    23    11    12   ar
    24    12    13   ar
    25    13    14   ar
    26    14    15    2
    27    14     4   ar
    28    23    18   ar
    29    13     7   ar
    30     1     2    1
@<TRIPOS>MOLECULE
*****
 28 30 0 0 0
SMALL
GASTEIGER

@<TRIPOS>ATOM
      1 N          63.9288   83.7651   13.8440 N.pl3   1  UNL1       -0.3039
      2 H          63.5608   82.9218   14.1943 H       1  UNL1        0.1496
      3 C          62.6208   83.7178   16.5434 C.3     1  UNL1        0.1363
      4 N          63.0743   85.0199   15.9524 N.ar    1  UNL1       -0.2669
      5 C          63.7282   85.0435   14.6027 C.ar    1  UNL1        0.2002
      6 N          64.1817   86.3454   14.0117 N.ar    1  UNL1       -0.2150
      7 C          63.9812   87.6238   14.7704 C.ar    1  UNL1        0.0895
      8 C          64.4346   88.9257   14.1794 C.ar    1  UNL1        0.0307
      9 C          64.2341   90.2040   14.9381 C.ar    1  UNL1        0.0592
     10 CL         64.6875   91.5060   14.3471 Cl      1  UNL1       -0.0822
     11 C          63.5801   90.1804   16.2878 C.ar    1  UNL1        0.0116
     12 C          63.1267   88.8785   16.8789 C.ar    1  UNL1        0.0071
     13 C          63.3272   87.6002   16.1201 C.ar    1  UNL1        0.0740
     14 C          62.8737   86.2981   16.7112 C.ar    1  UNL1        0.2643
     15 O          62.2198   86.2745   18.0609 O.2     1  UNL1       -0.2668
     16 C          64.6900   83.7715   12.5515 C.3     1  UNL1        0.0942
     17 C          64.0157   83.3432   11.2820 C.3     1  UNL1        0.0476
     18 C          63.1847   84.3223   10.5068 C.ar    1  UNL1       -0.0203
     19 C          63.4375   84.5265    9.0424 C.ar    1  UNL1       -0.0011
     20 C          62.6066   85.5056    8.2673 C.ar    1  UNL1        0.0369
     21 C          61.5228   86.2804    8.9565 C.ar    1  UNL1        0.1468
     22 C          61.2699   86.0761   10.4209 C.ar    1  UNL1        0.0369
     23 C          62.1009   85.0970   11.1960 C.ar    1  UNL1       -0.0011
     24 O          60.6917   87.2595    8.1813 O.3     1  UNL1       -0.4045
     25 C          60.3352   88.5849    8.7864 C.3     1  UNL1        0.5753
     26 F          59.9787   89.9104    9.3915 F       1  UNL1       -0.1328
     27 F          58.9471   88.4652    8.2308 F       1  UNL1       -0.1328
     28 F          61.7234   88.7047    9.3420 F       1  UNL1       -0.1328
@<TRIPOS>BOND
     1     3     4    1
     2     4     5   ar
     3     5     1    1
     4     1    16    1
     5    16    17    1
     6    17    18    1
     7    18    19   ar
     8    19    20   ar
     9    20    21   ar
    10    21    24    1
    11    24    25    1
    12    25    26    1
    13    25    27    1
    14    25    28    1
    15    21    22   ar
    16    22    23   ar
    17     5     6   ar
    18     6     7   ar
    19     7     8   ar
    20     8     9   ar
    21     9    10    1
    22     9    11   ar
    23    11    12   ar
    24    12    13   ar
    25    13    14   ar
    26    14    15    2
    27    14     4   ar
    28    23    18   ar
    29    13     7   ar
    30     1     2    1
@<TRIPOS>MOLECULE
*****
 28 30 0 0 0
SMALL
GASTEIGER

@<TRIPOS>ATOM
      1 N          64.0282   88.4682   13.6951 N.pl3   1  UNL1       -0.3039
      2 H          64.9548   88.5841   14.0067 H       1  UNL1        0.1496
      3 C          62.4593   88.3994   11.1390 C.3     1  UNL1        0.1363
      4 N          62.8048   87.1199   11.8416 N.ar    1  UNL1       -0.2669
      5 C          63.5892   87.1543   13.1196 C.ar    1  UNL1        0.2002
      6 N          63.9347   85.8749   13.8222 N.ar    1  UNL1       -0.2150
      7 C          63.4958   84.5610   13.2467 C.ar    1  UNL1        0.0895
      8 C          63.8413   83.2815   13.9493 C.ar    1  UNL1        0.0307
      9 C          63.4024   81.9678   13.3738 C.ar    1  UNL1        0.0592
     10 CL         63.7479   80.6882   14.0764 Cl      1  UNL1       -0.0822
     11 C          62.6179   81.9334   12.0957 C.ar    1  UNL1        0.0116
     12 C          62.2724   83.2128   11.3932 C.ar    1  UNL1        0.0071
     13 C          62.7114   84.5266   11.9686 C.ar    1  UNL1        0.0740
     14 C          62.3659   85.8061   11.2661 C.ar    1  UNL1        0.2643
     15 O          61.5814   85.7717    9.9880 O.2     1  UNL1       -0.2668
     16 C          63.0553   89.6053   13.7958 C.3     1  UNL1        0.0942
     17 C          63.5499   90.9925   14.0805 C.3     1  UNL1        0.0476
     18 C          64.5801   91.6193   13.1883 C.ar    1  UNL1       -0.0203
     19 C          65.8963   92.0600   13.7569 C.ar    1  UNL1       -0.0011
     20 C          66.9266   92.6867   12.8649 C.ar    1  UNL1        0.0369
     21 C          66.6406   92.8727   11.4042 C.ar    1  UNL1        0.1468
     22 C          65.3244   92.4319   10.8356 C.ar    1  UNL1        0.0369
     23 C          64.2941   91.8052   11.7277 C.ar    1  UNL1       -0.0011
     24 O          67.6708   93.4994   10.5121 O.3     1  UNL1       -0.4045
     25 C          68.2488   92.7180    9.3695 C.3     1  UNL1        0.5753
     26 F          68.8267   91.9366    8.2270 F       1  UNL1       -0.1328
     27 F          67.9243   93.8452    8.4345 F       1  UNL1       -0.1328
     28 F          68.5732   91.5909   10.3045 F       1  UNL1       -0.1328
@<TRIPOS>BOND
     1     3     4    1
     2     4     5   ar
     3     5     1    1
     4     1    16    1
     5    16    17    1
     6    17    18    1
     7    18    19   ar
     8    19    20   ar
     9    20    21   ar
    10    21    24    1
    11    24    25    1
    12    25    26    1
    13    25    27    1
    14    25    28    1
    15    21    22   ar
    16    22    23   ar
    17     5     6   ar
    18     6     7   ar
    19     7     8   ar
    20     8     9   ar
    21     9    10    1
    22     9    11   ar
    23    11    12   ar
    24    12    13   ar
    25    13    14   ar
    26    14    15    2
    27    14     4   ar
    28    23    18   ar
    29    13     7   ar
    30     1     2    1
@<TRIPOS>MOLECULE
*****
 28 30 0 0 0
SMALL
GASTEIGER

@<TRIPOS>ATOM
      1 N          64.2505   87.6895   14.4949 N.pl3   1  UNL1       -0.3039
      2 H          65.2107   87.4935   14.5887 H       1  UNL1        0.1496
      3 C          64.0105   84.7454   13.9705 C.3     1  UNL1        0.1363
      4 N          63.3793   85.7287   13.0298 N.ar    1  UNL1       -0.2669
      5 C          63.4993   87.2007   13.2920 C.ar    1  UNL1        0.2002
      6 N          62.8681   88.1839   12.3514 N.ar    1  UNL1       -0.2150
      7 C          62.1168   87.6952   11.1486 C.ar    1  UNL1        0.0895
      8 C          61.4856   88.6784   10.2080 C.ar    1  UNL1        0.0307
      9 C          60.7344   88.1897    9.0052 C.ar    1  UNL1        0.0592
     10 CL         60.1032   89.1729    8.0645 Cl      1  UNL1       -0.0822
     11 C          60.6145   86.7176    8.7430 C.ar    1  UNL1        0.0116
     12 C          61.2456   85.7344    9.6836 C.ar    1  UNL1        0.0071
     13 C          61.9968   86.2232   10.8864 C.ar    1  UNL1        0.0740
     14 C          62.6281   85.2399   11.8270 C.ar    1  UNL1        0.2643
     15 O          62.5081   83.7679   11.5648 O.2     1  UNL1       -0.2668
     16 C          63.5387   88.4767   15.5549 C.3     1  UNL1        0.0942
     17 C          63.2823   89.9412   15.3563 C.3     1  UNL1        0.0476
     18 C          64.4338   90.8901   15.2021 C.ar    1  UNL1       -0.0203
     19 C          64.8588   91.7476   16.3571 C.ar    1  UNL1       -0.0011
     20 C          66.0103   92.6964   16.2029 C.ar    1  UNL1        0.0369
     21 C          66.7366   92.7878   14.8937 C.ar    1  UNL1        0.1468
     22 C          66.3116   91.9303   13.7387 C.ar    1  UNL1        0.0369
     23 C          65.1601   90.9814   13.8929 C.ar    1  UNL1       -0.0011
     24 O          67.8881   93.7367   14.7395 O.3     1  UNL1       -0.4045
     25 C          69.0417   93.6780   15.6965 C.3     1  UNL1        0.5753
     26 F          70.1952   93.6193   16.6535 F       1  UNL1       -0.1328
     27 F          69.3443   92.2797   15.2459 F       1  UNL1       -0.1328
     28 F          68.7390   95.0763   16.1471 F       1  UNL1       -0.1328
@<TRIPOS>BOND
     1     3     4    1
     2     4     5   ar
     3     5     1    1
     4     1    16    1
     5    16    17    1
     6    17    18    1
     7    18    19   ar
     8    19    20   ar
     9    20    21   ar
    10    21    24    1
    11    24    25    1
    12    25    26    1
    13    25    27    1
    14    25    28    1
    15    21    22   ar
    16    22    23   ar
    17     5     6   ar
    18     6     7   ar
    19     7     8   ar
    20     8     9   ar
    21     9    10    1
    22     9    11   ar
    23    11    12   ar
    24    12    13   ar
    25    13    14   ar
    26    14    15    2
    27    14     4   ar
    28    23    18   ar
    29    13     7   ar
    30     1     2    1
@<TRIPOS>MOLECULE
*****
 28 30 0 0 0
SMALL
GASTEIGER

@<TRIPOS>ATOM
      1 N          63.8429   85.9368   13.7493 N.pl3   1  UNL1       -0.3039
      2 H          64.7630   85.6241   13.5917 H       1  UNL1        0.1496
      3 C          64.1991   88.9143   13.8355 C.3     1  UNL1        0.1363
      4 N          63.3389   88.2923   12.7757 N.ar    1  UNL1       -0.2669
      5 C          63.1609   86.8035   12.7325 C.ar    1  UNL1        0.2002
      6 N          62.3008   86.1814   11.6727 N.ar    1  UNL1       -0.2150
      7 C          61.6187   87.0481   10.6560 C.ar    1  UNL1        0.0895
      8 C          60.7587   86.4260    9.5962 C.ar    1  UNL1        0.0307
      9 C          60.0767   87.2927    8.5795 C.ar    1  UNL1        0.0592
     10 CL         59.2165   86.6706    7.5196 Cl      1  UNL1       -0.0822
     11 C          60.2547   88.7815    8.6226 C.ar    1  UNL1        0.0116
     12 C          61.1148   89.4036    9.6824 C.ar    1  UNL1        0.0071
     13 C          61.7968   88.5369   10.6991 C.ar    1  UNL1        0.0740
     14 C          62.6570   89.1590   11.7590 C.ar    1  UNL1        0.2643
     15 O          62.8350   90.6477   11.8021 O.2     1  UNL1       -0.2668
     16 C          63.1231   85.5467   15.0061 C.3     1  UNL1        0.0942
     17 C          63.3072   84.1732   15.5803 C.3     1  UNL1        0.0476
     18 C          63.1136   82.9653   14.7122 C.ar    1  UNL1       -0.0203
     19 C          61.7538   82.3456   14.5818 C.ar    1  UNL1       -0.0011
     20 C          61.5601   81.1378   13.7138 C.ar    1  UNL1        0.0369
     21 C          62.7262   80.5495   12.9763 C.ar    1  UNL1        0.1468
     22 C          64.0860   81.1691   13.1067 C.ar    1  UNL1        0.0369
     23 C          64.2797   82.3770   13.9747 C.ar    1  UNL1       -0.0011
     24 O          62.5326   79.3415   12.1082 O.3     1  UNL1       -0.4045
     25 C          62.8014   79.4258   10.6349 C.3     1  UNL1        0.5753
     26 F          63.0702   79.5101    9.1616 F       1  UNL1       -0.1328
     27 F          62.7962   77.9283   10.5483 F       1  UNL1       -0.1328
     28 F          62.8066   80.9233   10.7215 F       1  UNL1       -0.1328
@<TRIPOS>BOND
     1     3     4    1
     2     4     5   ar
     3     5     1    1
     4     1    16    1
     5    16    17    1
     6    17    18    1
     7    18    19   ar
     8    19    20   ar
     9    20    21   ar
    10    21    24    1
    11    24    25    1
    12    25    26    1
    13    25    27    1
    14    25    28    1
    15    21    22   ar
    16    22    23   ar
    17     5     6   ar
    18     6     7   ar
    19     7     8   ar
    20     8     9   ar
    21     9    10    1
    22     9    11   ar
    23    11    12   ar
    24    12    13   ar
    25    13    14   ar
    26    14    15    2
    27    14     4   ar
    28    23    18   ar
    29    13     7   ar
    30     1     2    1
