@<TRIPOS>MOLECULE
*****
 17 18 0 0 0
SMALL
GASTEIGER

@<TRIPOS>ATOM
      1 C          66.2106   93.4343   12.4163 C.ar    1  UNL1        0.1386
      2 C          66.5705   93.2909   13.8654 C.ar    1  UNL1        0.0369
      3 C          65.9279   92.2193   14.6953 C.ar    1  UNL1        0.0046
      4 C          64.9254   91.2911   14.0761 C.ar    1  UNL1        0.0174
      5 C          64.5655   91.4345   12.6270 C.ar    1  UNL1        0.0046
      6 C          65.2082   92.5061   11.7971 C.ar    1  UNL1        0.0369
      7 C          64.2828   90.2195   14.9060 C.ar    1  UNL1        0.0772
      8 C          64.3224   88.7461   14.6277 C.ar    1  UNL1        0.1175
      9 N          63.5518   88.0491   15.7096 N.ar    1  UNL1       -0.2225
     10 C          63.0360   89.0917   16.6565 C.ar    1  UNL1        0.1750
     11 N          63.4878   90.4331   16.1599 N.ar    1  UNL1       -0.3349
     12 H          63.2961   91.3013   16.5827 H       1  UNL1        0.1675
     13 O          66.8533   94.5059   11.5865 O.3     1  UNL1       -0.4755
     14 C          66.4874   94.6545   10.1394 C.3     1  UNL1        0.2054
     15 C          67.5235   94.4339    9.0774 C.3     1  UNL1        0.0473
     16 C          68.1319   91.9541    9.5574 C.3     1  UNL1        0.0001
     17 C          68.5560   93.3593    9.2486 C.3     1  UNL1        0.0038
@<TRIPOS>BOND
     1    16    17    1
     2    17    15    1
     3    15    14    1
     4    14    13    1
     5    13     1    1
     6     1     2   ar
     7     2     3   ar
     8     3     4   ar
     9     4     7    1
    10     7     8   ar
    11     8     9   ar
    12     9    10   ar
    13    10    11   ar
    14     4     5   ar
    15     5     6   ar
    16     6     1   ar
    17    11     7   ar
    18    11    12    1
@<TRIPOS>MOLECULE
*****
 17 18 0 0 0
SMALL
GASTEIGER

@<TRIPOS>ATOM
      1 C          62.0398   89.2745   11.5542 C.ar    1  UNL1        0.1386
      2 C          62.9021   89.6062   12.7359 C.ar    1  UNL1        0.0369
      3 C          63.9014   90.7212   12.6458 C.ar    1  UNL1        0.0046
      4 C          64.0384   91.5046   11.3740 C.ar    1  UNL1        0.0174
      5 C          63.1761   91.1729   10.1923 C.ar    1  UNL1        0.0046
      6 C          62.1768   90.0579   10.2824 C.ar    1  UNL1        0.0369
      7 C          65.0377   92.6196   11.2838 C.ar    1  UNL1        0.0772
      8 C          65.9388   93.0874   12.3880 C.ar    1  UNL1        0.1175
      9 N          66.7694   94.2195   11.8603 N.ar    1  UNL1       -0.2225
     10 C          66.3817   94.4514   10.4299 C.ar    1  UNL1        0.1750
     11 N          65.3114   93.4626   10.0737 N.ar    1  UNL1       -0.3349
     12 H          64.8667   93.3812    9.1991 H       1  UNL1        0.1675
     13 O          61.0405   88.1595   11.6444 O.3     1  UNL1       -0.4755
     14 C          60.4492   87.5794   10.3939 C.3     1  UNL1        0.2054
     15 C          61.0536   86.3527    9.7775 C.3     1  UNL1        0.0473
     16 C          63.0198   85.2252    8.5074 C.3     1  UNL1        0.0001
     17 C          62.3028   86.4646    8.9546 C.3     1  UNL1        0.0038
@<TRIPOS>BOND
     1    16    17    1
     2    17    15    1
     3    15    14    1
     4    14    13    1
     5    13     1    1
     6     1     2   ar
     7     2     3   ar
     8     3     4   ar
     9     4     7    1
    10     7     8   ar
    11     8     9   ar
    12     9    10   ar
    13    10    11   ar
    14     4     5   ar
    15     5     6   ar
    16     6     1   ar
    17    11     7   ar
    18    11    12    1
@<TRIPOS>MOLECULE
*****
 17 18 0 0 0
SMALL
GASTEIGER

@<TRIPOS>ATOM
      1 C          62.0461   89.2886   11.5164 C.ar    1  UNL1        0.1386
      2 C          62.2046   90.0639   10.2421 C.ar    1  UNL1        0.0369
      3 C          63.2018   91.1816   10.1633 C.ar    1  UNL1        0.0046
      4 C          64.0405   91.5241   11.3588 C.ar    1  UNL1        0.0174
      5 C          63.8820   90.7488   12.6330 C.ar    1  UNL1        0.0046
      6 C          62.8848   89.6311   12.7118 C.ar    1  UNL1        0.0369
      7 C          65.0378   92.6418   11.2800 C.ar    1  UNL1        0.0772
      8 C          65.9580   93.0815   12.3799 C.ar    1  UNL1        0.1175
      9 N          66.7788   94.2275   11.8671 N.ar    1  UNL1       -0.2225
     10 C          66.3659   94.4961   10.4503 C.ar    1  UNL1        0.1750
     11 N          65.2899   93.5160   10.0875 N.ar    1  UNL1       -0.3349
     12 H          64.8299   93.4570    9.2190 H       1  UNL1        0.1675
     13 O          61.0488   88.1709   11.5952 O.3     1  UNL1       -0.4755
     14 C          60.5112   87.5554   10.3374 C.3     1  UNL1        0.2054
     15 C          61.1185   86.2930    9.8011 C.3     1  UNL1        0.0473
     16 C          62.8868   85.3002    8.1770 C.3     1  UNL1        0.0001
     17 C          62.4966   86.3162    9.2092 C.3     1  UNL1        0.0038
@<TRIPOS>BOND
     1    16    17    1
     2    17    15    1
     3    15    14    1
     4    14    13    1
     5    13     1    1
     6     1     2   ar
     7     2     3   ar
     8     3     4   ar
     9     4     7    1
    10     7     8   ar
    11     8     9   ar
    12     9    10   ar
    13    10    11   ar
    14     4     5   ar
    15     5     6   ar
    16     6     1   ar
    17    11     7   ar
    18    11    12    1
@<TRIPOS>MOLECULE
*****
 17 18 0 0 0
SMALL
GASTEIGER

@<TRIPOS>ATOM
      1 C          63.7137   83.7677   10.7256 C.ar    1  UNL1        0.1386
      2 C          62.7800   84.5257   11.6221 C.ar    1  UNL1        0.0369
      3 C          61.8975   85.5965   11.0524 C.ar    1  UNL1        0.0046
      4 C          61.9486   85.9093    9.5863 C.ar    1  UNL1        0.0174
      5 C          62.8823   85.1512    8.6899 C.ar    1  UNL1        0.0046
      6 C          63.7649   84.0805    9.2595 C.ar    1  UNL1        0.0369
      7 C          61.0661   86.9800    9.0166 C.ar    1  UNL1        0.0772
      8 C          61.0457   88.4206    9.4343 C.ar    1  UNL1        0.1175
      9 N          60.0160   89.1291    8.6050 N.ar    1  UNL1       -0.2225
     10 C          59.4000   88.1265    7.6749 C.ar    1  UNL1        0.1750
     11 N          60.0490   86.7983    7.9292 N.ar    1  UNL1       -0.3349
     12 H          59.8434   85.9553    7.4641 H       1  UNL1        0.1675
     13 O          64.5963   82.6969   11.2953 O.3     1  UNL1       -0.4755
     14 C          64.1108   81.8533   12.4366 C.3     1  UNL1        0.2054
     15 C          62.9069   80.9757   12.2616 C.3     1  UNL1        0.0473
     16 C          61.0595   80.9850   14.0884 C.3     1  UNL1        0.0001
     17 C          62.2597   80.3431   13.4578 C.3     1  UNL1        0.0038
@<TRIPOS>BOND
     1    16    17    1
     2    17    15    1
     3    15    14    1
     4    14    13    1
     5    13     1    1
     6     1     2   ar
     7     2     3   ar
     8     3     4   ar
     9     4     7    1
    10     7     8   ar
    11     8     9   ar
    12     9    10   ar
    13    10    11   ar
    14     4     5   ar
    15     5     6   ar
    16     6     1   ar
    17    11     7   ar
    18    11    12    1
@<TRIPOS>MOLECULE
*****
 17 18 0 0 0
SMALL
GASTEIGER

@<TRIPOS>ATOM
      1 C          63.1008   89.7215   12.4718 C.ar    1  UNL1        0.1386
      2 C          63.5665   90.9957   11.8319 C.ar    1  UNL1        0.0369
      3 C          64.6926   91.7746   12.4445 C.ar    1  UNL1        0.0046
      4 C          65.3530   91.2793   13.6968 C.ar    1  UNL1        0.0174
      5 C          64.8873   90.0051   14.3367 C.ar    1  UNL1        0.0046
      6 C          63.7612   89.2262   13.7241 C.ar    1  UNL1        0.0369
      7 C          66.4791   92.0582   14.3094 C.ar    1  UNL1        0.0772
      8 C          67.9202   91.9963   13.8978 C.ar    1  UNL1        0.1175
      9 N          68.6936   92.9356   14.7750 N.ar    1  UNL1       -0.2225
     10 C          67.7305   93.5780   15.7288 C.ar    1  UNL1        0.1750
     11 N          66.3619   93.0357   15.4410 N.ar    1  UNL1       -0.3349
     12 H          65.5323   93.2787   15.9121 H       1  UNL1        0.1675
     13 O          61.9746   88.9426   11.8593 O.3     1  UNL1       -0.4755
     14 C          62.2513   87.6377   11.1733 C.3     1  UNL1        0.2054
     15 C          61.9732   87.4875    9.7070 C.3     1  UNL1        0.0473
     16 C          62.8718   85.4578    8.3567 C.3     1  UNL1        0.0001
     17 C          61.7646   86.1233    9.1191 C.3     1  UNL1        0.0038
@<TRIPOS>BOND
     1    16    17    1
     2    17    15    1
     3    15    14    1
     4    14    13    1
     5    13     1    1
     6     1     2   ar
     7     2     3   ar
     8     3     4   ar
     9     4     7    1
    10     7     8   ar
    11     8     9   ar
    12     9    10   ar
    13    10    11   ar
    14     4     5   ar
    15     5     6   ar
    16     6     1   ar
    17    11     7   ar
    18    11    12    1
@<TRIPOS>MOLECULE
*****
 17 18 0 0 0
SMALL
GASTEIGER

@<TRIPOS>ATOM
      1 C          63.8490   90.3794   13.6512 C.ar    1  UNL1        0.1386
      2 C          63.4641   90.6517   12.2273 C.ar    1  UNL1        0.0369
      3 C          64.2139   91.6780   11.4307 C.ar    1  UNL1        0.0046
      4 C          65.3486   92.4321   12.0582 C.ar    1  UNL1        0.0174
      5 C          65.7335   92.1598   13.4821 C.ar    1  UNL1        0.0046
      6 C          64.9838   91.1335   14.2786 C.ar    1  UNL1        0.0369
      7 C          66.0984   93.4585   11.2617 C.ar    1  UNL1        0.0772
      8 C          67.1853   93.1804   10.2660 C.ar    1  UNL1        0.1175
      9 N          67.6516   94.4931    9.7099 N.ar    1  UNL1       -0.2225
     10 C          66.8529   95.5826   10.3620 C.ar    1  UNL1        0.1750
     11 N          65.8930   94.9431   11.3210 N.ar    1  UNL1       -0.3349
     12 H          65.2423   95.4150   11.8895 H       1  UNL1        0.1675
     13 O          63.0993   89.3531   14.4477 O.3     1  UNL1       -0.4755
     14 C          63.7715   88.6537   15.5917 C.3     1  UNL1        0.2054
     15 C          63.0787   88.5487   16.9180 C.3     1  UNL1        0.0473
     16 C          63.2622   85.9594   16.8100 C.3     1  UNL1        0.0001
     17 C          62.8005   87.2007   17.5143 C.3     1  UNL1        0.0038
@<TRIPOS>BOND
     1    16    17    1
     2    17    15    1
     3    15    14    1
     4    14    13    1
     5    13     1    1
     6     1     2   ar
     7     2     3   ar
     8     3     4   ar
     9     4     7    1
    10     7     8   ar
    11     8     9   ar
    12     9    10   ar
    13    10    11   ar
    14     4     5   ar
    15     5     6   ar
    16     6     1   ar
    17    11     7   ar
    18    11    12    1
@<TRIPOS>MOLECULE
*****
 17 18 0 0 0
SMALL
GASTEIGER

@<TRIPOS>ATOM
      1 C          64.5816   91.5791   12.7739 C.ar    1  UNL1        0.1386
      2 C          64.3854   92.0256   11.3555 C.ar    1  UNL1        0.0369
      3 C          63.4614   91.2655   10.4508 C.ar    1  UNL1        0.0046
      4 C          62.7336   90.0588   10.9646 C.ar    1  UNL1        0.0174
      5 C          62.9298   89.6122   12.3830 C.ar    1  UNL1        0.0046
      6 C          63.8538   90.3723   13.2877 C.ar    1  UNL1        0.0369
      7 C          61.8096   89.2986   10.0599 C.ar    1  UNL1        0.0772
      8 C          61.8964   87.8361    9.7382 C.ar    1  UNL1        0.1175
      9 N          60.7770   87.5011    8.7976 N.ar    1  UNL1       -0.2225
     10 C          59.9983   88.7566    8.5380 C.ar    1  UNL1        0.1750
     11 N          60.6365   89.8675    9.3181 N.ar    1  UNL1       -0.3349
     12 H          60.3379   90.8054    9.3395 H       1  UNL1        0.1675
     13 O          65.5056   92.3392   13.6786 O.3     1  UNL1       -0.4755
     14 C          65.8479   91.7918   15.0325 C.3     1  UNL1        0.2054
     15 C          66.4690   92.6831   16.0667 C.3     1  UNL1        0.0473
     16 C          68.9014   92.6367   15.1547 C.3     1  UNL1        0.0001
     17 C          67.7594   93.3888   15.7714 C.3     1  UNL1        0.0038
@<TRIPOS>BOND
     1    16    17    1
     2    17    15    1
     3    15    14    1
     4    14    13    1
     5    13     1    1
     6     1     2   ar
     7     2     3   ar
     8     3     4   ar
     9     4     7    1
    10     7     8   ar
    11     8     9   ar
    12     9    10   ar
    13    10    11   ar
    14     4     5   ar
    15     5     6   ar
    16     6     1   ar
    17    11     7   ar
    18    11    12    1
@<TRIPOS>MOLECULE
*****
 17 18 0 0 0
SMALL
GASTEIGER

@<TRIPOS>ATOM
      1 C          63.2126   89.6439   12.7356 C.ar    1  UNL1        0.1386
      2 C          63.6135   90.9273   12.0707 C.ar    1  UNL1        0.0369
      3 C          64.7461   91.7382   12.6271 C.ar    1  UNL1        0.0046
      4 C          65.4778   91.2658   13.8483 C.ar    1  UNL1        0.0174
      5 C          65.0769   89.9824   14.5131 C.ar    1  UNL1        0.0046
      6 C          63.9443   89.1714   13.9568 C.ar    1  UNL1        0.0369
      7 C          66.6104   92.0768   14.4046 C.ar    1  UNL1        0.0772
      8 C          68.0478   91.9877   13.9853 C.ar    1  UNL1        0.1175
      9 N          68.8303   92.9751   14.7995 N.ar    1  UNL1       -0.2225
     10 C          67.8764   93.6744   15.7220 C.ar    1  UNL1        0.1750
     11 N          66.5045   93.1192   15.4780 N.ar    1  UNL1       -0.3349
     12 H          65.6793   93.3912   15.9410 H       1  UNL1        0.1675
     13 O          62.0800   88.8329   12.1792 O.3     1  UNL1       -0.4755
     14 C          62.0007   88.5677   10.7050 C.3     1  UNL1        0.2054
     15 C          60.8965   89.1755    9.8919 C.3     1  UNL1        0.0473
     16 C          59.3202   90.2891   11.6312 C.3     1  UNL1        0.0001
     17 C          60.1705   90.3861   10.3993 C.3     1  UNL1        0.0038
@<TRIPOS>BOND
     1    16    17    1
     2    17    15    1
     3    15    14    1
     4    14    13    1
     5    13     1    1
     6     1     2   ar
     7     2     3   ar
     8     3     4   ar
     9     4     7    1
    10     7     8   ar
    11     8     9   ar
    12     9    10   ar
    13    10    11   ar
    14     4     5   ar
    15     5     6   ar
    16     6     1   ar
    17    11     7   ar
    18    11    12    1
@<TRIPOS>MOLECULE
*****
 17 18 0 0 0
SMALL
GASTEIGER

@<TRIPOS>ATOM
      1 C          63.2373   90.9493   11.0831 C.ar    1  UNL1        0.1386
      2 C          63.2274   90.3562   12.4608 C.ar    1  UNL1        0.0369
      3 C          64.2691   90.7634   13.4602 C.ar    1  UNL1        0.0046
      4 C          65.3208   91.7639   13.0820 C.ar    1  UNL1        0.0174
      5 C          65.3307   92.3571   11.7043 C.ar    1  UNL1        0.0046
      6 C          64.2889   91.9498   10.7049 C.ar    1  UNL1        0.0369
      7 C          66.3625   92.1712   14.0814 C.ar    1  UNL1        0.0772
      8 C          66.1203   92.4910   15.5268 C.ar    1  UNL1        0.1175
      9 N          67.4375   92.8476   16.1497 N.ar    1  UNL1       -0.2225
     10 C          68.4937   92.7481   15.0893 C.ar    1  UNL1        0.1750
     11 N          67.8293   92.3301   13.8111 N.ar    1  UNL1       -0.3349
     12 H          68.2774   92.1853   12.9464 H       1  UNL1        0.1675
     13 O          62.1955   90.5421   10.0836 O.3     1  UNL1       -0.4755
     14 C          61.5861   89.1731   10.1511 C.3     1  UNL1        0.2054
     15 C          62.4450   87.9593    9.9541 C.3     1  UNL1        0.0473
     16 C          62.5550   85.7603    8.5747 C.3     1  UNL1        0.0001
     17 C          61.8244   86.6631    9.5240 C.3     1  UNL1        0.0038
@<TRIPOS>BOND
     1    16    17    1
     2    17    15    1
     3    15    14    1
     4    14    13    1
     5    13     1    1
     6     1     2   ar
     7     2     3   ar
     8     3     4   ar
     9     4     7    1
    10     7     8   ar
    11     8     9   ar
    12     9    10   ar
    13    10    11   ar
    14     4     5   ar
    15     5     6   ar
    16     6     1   ar
    17    11     7   ar
    18    11    12    1
