@<TRIPOS>MOLECULE
*****
 58 66 0 0 0
SMALL
GASTEIGER

@<TRIPOS>ATOM
      1 C          62.7502   87.3647   12.3778 C.ar    1  UNL1        0.0263
      2 C          63.6374   88.5182   12.7420 C.ar    1  UNL1       -0.0034
      3 C          63.6692   89.7425   11.8760 C.ar    1  UNL1       -0.0066
      4 C          62.8139   89.8134   10.6458 C.ar    1  UNL1        0.0470
      5 C          61.9268   88.6600   10.2816 C.ar    1  UNL1        0.0508
      6 C          61.8949   87.4357   11.1476 C.ar    1  UNL1        0.1368
      7 N          63.0542   91.1409    9.9901 N.pl3   1  UNL1       -0.3043
      8 C          62.4046   91.6327    8.7305 C.3     1  UNL1        0.1122
      9 C          64.0580   91.8905   10.8150 C.3     1  UNL1        0.1163
     10 C          64.6751   93.2483   10.6555 C.3     1  UNL1        0.2316
     11 O          63.7848   93.2233    9.4485 O.3     1  UNL1       -0.3727
     12 C          65.6722   93.7419   11.6614 C.3     1  UNL1        0.2097
     13 C          66.0523   92.8776   12.8271 C.3     1  UNL1        0.0719
     14 C          67.0495   93.3712   13.8330 C.2     1  UNL1       -0.0250
     15 C          67.4296   92.5069   14.9986 C.2     1  UNL1       -0.0132
     16 C          66.8125   91.1490   15.1581 C.3     1  UNL1        0.0985
     17 N          65.8154   90.6555   14.1521 N.3     1  UNL1       -0.2695
     18 C          64.9828   89.4302   13.9165 C.3     1  UNL1        0.0728
     19 C          64.1876   89.6442   12.6627 C.3     1  UNL1        0.0244
     20 C          64.4381   91.0262   11.9806 C.3     1  UNL1        0.0547
     21 C          65.4353   91.5197   12.9866 C.3     1  UNL1        0.0703
     22 H          63.3066   92.3800    9.4169 H       1  UNL1        0.2111
     23 C          62.8192   87.1742   18.3728 C.2     1  UNL1       -0.0325
     24 C          62.8311   87.9743   17.1041 C.2     1  UNL1       -0.0322
     25 C          62.7943   87.4299   15.6961 C.3     1  UNL1        0.0386
     26 C          62.7754   86.4712   16.8495 C.3     1  UNL1        0.0770
     27 N          62.7251   84.9784   16.9873 N.3     1  UNL1       -0.2651
     28 C          62.7662   85.6763   18.3145 C.3     1  UNL1        0.0948
     29 C          62.6728   83.8259   16.0286 C.3     1  UNL1        0.1006
     30 C          62.6491   83.6889   14.5351 C.2     1  UNL1        0.0094
     31 C          62.6680   84.6476   13.3816 C.2     1  UNL1        0.0693
     32 N          62.6241   83.8478   12.1134 N.2     1  UNL1       -0.2531
     33 C          62.5781   82.3947   12.4831 C.2     1  UNL1        0.0627
     34 C          62.5241   81.1485   11.6502 C.3     1  UNL1        0.0717
     35 C          62.4855   79.8039   12.3140 C.2     1  UNL1       -0.0198
     36 C          62.5010   79.7056   13.8107 C.2     1  UNL1       -0.0042
     37 C          62.5550   80.9520   14.6436 C.2     1  UNL1        0.0006
     38 C          62.5935   82.2966   13.9798 C.2     1  UNL1        0.0124
     39 C          62.7184   86.1404   13.2438 C.3     1  UNL1        0.1461
     40 C          62.7707   87.2929   14.2025 C.3     1  UNL1        0.0262
     41 C          62.4901   87.1295   20.9496 C.3     1  UNL1        0.0047
     42 C          62.8603   87.8721   19.7000 C.3     1  UNL1        0.0231
     43 C          62.6825   85.6217   11.8368 C.2     1  UNL1        0.3253
     44 O          61.5943   85.0999   10.9460 O.2     1  UNL1       -0.2494
     45 O          63.9447   85.5566   11.0291 O.3     1  UNL1       -0.4439
     46 C          63.9881   84.7430    9.7696 C.3     1  UNL1        0.2556
     47 O          61.0077   86.2823   10.7834 O.3     1  UNL1       -0.4717
     48 C          60.2151   86.3185    9.5106 C.3     1  UNL1        0.2525
     49 C          64.9829   94.5975   10.0768 C.2     1  UNL1        0.3466
     50 O          64.8448   96.0876   10.1797 O.2     1  UNL1       -0.2473
     51 O          65.7896   94.7068    8.8168 O.3     1  UNL1       -0.4427
     52 C          65.6794   95.9329    7.9597 C.3     1  UNL1        0.2557
     53 C          66.6694   94.2355   12.6675 C.3     1  UNL1        0.0089
     54 C          66.3638   95.5916   13.2310 C.3     1  UNL1        0.0005
     55 O          66.2893   95.0998   11.5019 O.3     1  UNL1       -0.4488
     56 C          67.4272   95.2987   10.5451 C.2     1  UNL1        0.3175
     57 C          67.7804   96.6792   10.0764 C.3     1  UNL1        0.1212
     58 O          68.3969   94.3730    9.8723 O.2     1  UNL1       -0.2501
@<TRIPOS>BOND
     1    41    42    1
     2    42    23    1
     3    23    24    2
     4    24    25    1
     5    25    26    1
     6    26    27    1
     7    27    28    1
     8    27    29    1
     9    29    30    1
    10    30    31    2
    11    31    32    1
    12    32    33    2
    13    33    34    1
    14    34    35    1
    15    35    36    2
    16    36    37    1
    17    37    38    2
    18    31    39    1
    19    39    43    1
    20    43    44    2
    21    43    45    1
    22    45    46    1
    23    39     1    1
    24     1     2   ar
    25     2     3   ar
    26     3     4   ar
    27     4     5   ar
    28     5     6   ar
    29     6    47    1
    30    47    48    1
    31     4     7    1
    32     7     8    1
    33     9     7    1
    34     9    10    1
    35    10    11    1
    36    10    49    1
    37    49    50    2
    38    49    51    1
    39    51    52    1
    40    10    12    1
    41    12    55    1
    42    55    56    1
    43    56    57    1
    44    56    58    2
    45    12    13    1
    46    13    53    1
    47    53    54    1
    48    13    14    1
    49    14    15    2
    50    15    16    1
    51    16    17    1
    52    17    18    1
    53    18    19    1
    54    20    19    1
    55    20    21    1
    56    39    40    1
    57    28    23    1
    58    38    30    1
    59     6     1   ar
    60    20     9    1
    61    25    40    1
    62    38    33    1
    63    20     3    1
    64    21    13    1
    65    21    17    1
    66    11    22    1
