@<TRIPOS>MOLECULE
*****
 58 66 0 0 0
SMALL
GASTEIGER

@<TRIPOS>ATOM
      1 C          62.7527   87.3526   12.3919 C.ar    1  UNL1        0.0263
      2 C          63.6428   88.5057   12.7501 C.ar    1  UNL1       -0.0034
      3 C          63.6714   89.7289   11.8825 C.ar    1  UNL1       -0.0066
      4 C          62.8099   89.7991   10.6565 C.ar    1  UNL1        0.0470
      5 C          61.9199   88.6461   10.2982 C.ar    1  UNL1        0.0508
      6 C          61.8913   87.4228   11.1659 C.ar    1  UNL1        0.1368
      7 N          63.0481   91.1256    9.9979 N.pl3   1  UNL1       -0.3043
      8 C          62.3927   91.6163    8.7410 C.3     1  UNL1        0.1122
      9 C          64.0567   91.8752   10.8169 C.3     1  UNL1        0.1163
     10 C          64.6742   93.2323   10.6525 C.3     1  UNL1        0.2316
     11 O          63.7779   93.2066    9.4501 O.3     1  UNL1       -0.3727
     12 C          65.6769   93.7262   11.6528 C.3     1  UNL1        0.2097
     13 C          66.0621   92.8630   12.8176 C.3     1  UNL1        0.0719
     14 C          67.0647   93.3569   13.8179 C.2     1  UNL1       -0.0250
     15 C          67.4499   92.4938   14.9826 C.2     1  UNL1       -0.0132
     16 C          66.8324   91.1367   15.1469 C.3     1  UNL1        0.0985
     17 N          65.8298   90.6427   14.1466 N.3     1  UNL1       -0.2695
     18 C          64.9949   89.4179   13.9167 C.3     1  UNL1        0.0728
     19 C          64.1936   89.6311   12.6667 C.3     1  UNL1        0.0244
     20 C          64.4419   91.0120   11.9816 C.3     1  UNL1        0.0547
     21 C          65.4446   91.5059   12.9819 C.3     1  UNL1        0.0703
     22 H          63.2987   92.3636    9.4219 H       1  UNL1        0.2111
     23 C          62.8247   87.1704   18.3871 C.2     1  UNL1       -0.0325
     24 C          62.8342   87.9688   17.1173 C.2     1  UNL1       -0.0322
     25 C          62.7981   87.4224   15.7101 C.3     1  UNL1        0.0386
     26 C          62.7820   86.4652   16.8648 C.3     1  UNL1        0.0770
     27 N          62.7352   84.9725   17.0046 N.3     1  UNL1       -0.2651
     28 C          62.7752   85.6723   18.3308 C.3     1  UNL1        0.0948
     29 C          62.6852   83.8186   16.0475 C.3     1  UNL1        0.1006
     30 C          62.6612   83.6795   14.5542 C.2     1  UNL1        0.0094
     31 C          62.6774   84.6367   13.3994 C.2     1  UNL1        0.0693
     32 N          62.6348   83.8351   12.1323 N.2     1  UNL1       -0.2531
     33 C          62.5924   82.3824   12.5040 C.2     1  UNL1        0.0627
     34 C          62.5409   81.1348   11.6728 C.3     1  UNL1        0.0717
     35 C          62.5058   79.7911   12.3385 C.2     1  UNL1       -0.0198
     36 C          62.5222   79.6949   13.8353 C.2     1  UNL1       -0.0042
     37 C          62.5736   80.9426   14.6664 C.2     1  UNL1        0.0006
     38 C          62.6087   82.2863   14.0008 C.2     1  UNL1        0.0124
     39 C          62.7242   86.1294   13.2596 C.3     1  UNL1        0.1461
     40 C          62.7742   87.2833   14.2166 C.3     1  UNL1        0.0262
     41 C          62.4766   87.1345   20.9615 C.3     1  UNL1        0.0047
     42 C          62.8648   87.8702   19.7133 C.3     1  UNL1        0.0231
     43 C          62.6889   85.6086   11.8533 C.2     1  UNL1        0.3253
     44 O          61.5998   85.0931   10.9600 O.2     1  UNL1       -0.2494
     45 O          63.9531   85.5334   11.0495 O.3     1  UNL1       -0.4439
     46 C          64.0286   84.6318    9.8531 C.3     1  UNL1        0.2556
     47 O          61.0013   86.2697   10.8076 O.3     1  UNL1       -0.4717
     48 C          60.1901   86.3120    9.5467 C.3     1  UNL1        0.2525
     49 C          64.9804   94.5804   10.0706 C.2     1  UNL1        0.3466
     50 O          64.8419   96.0707   10.1709 O.2     1  UNL1       -0.2473
     51 O          65.7844   94.6876    8.8087 O.3     1  UNL1       -0.4427
     52 C          65.7112   95.9333    7.9763 C.3     1  UNL1        0.2557
     53 C          66.6796   94.2201   12.6532 C.3     1  UNL1        0.0089
     54 C          66.3515   95.5851   13.1815 C.3     1  UNL1        0.0005
     55 O          66.2943   95.0833   11.4885 O.3     1  UNL1       -0.4488
     56 C          67.4365   95.2772   10.5357 C.2     1  UNL1        0.3175
     57 C          67.7922   96.6552   10.0618 C.3     1  UNL1        0.1212
     58 O          68.4088   94.3479    9.8717 O.2     1  UNL1       -0.2501
@<TRIPOS>BOND
     1    41    42    1
     2    42    23    1
     3    23    24    2
     4    24    25    1
     5    25    26    1
     6    26    27    1
     7    27    28    1
     8    27    29    1
     9    29    30    1
    10    30    31    2
    11    31    32    1
    12    32    33    2
    13    33    34    1
    14    34    35    1
    15    35    36    2
    16    36    37    1
    17    37    38    2
    18    31    39    1
    19    39    43    1
    20    43    44    2
    21    43    45    1
    22    45    46    1
    23    39     1    1
    24     1     2   ar
    25     2     3   ar
    26     3     4   ar
    27     4     5   ar
    28     5     6   ar
    29     6    47    1
    30    47    48    1
    31     4     7    1
    32     7     8    1
    33     9     7    1
    34     9    10    1
    35    10    11    1
    36    10    49    1
    37    49    50    2
    38    49    51    1
    39    51    52    1
    40    10    12    1
    41    12    55    1
    42    55    56    1
    43    56    57    1
    44    56    58    2
    45    12    13    1
    46    13    53    1
    47    53    54    1
    48    13    14    1
    49    14    15    2
    50    15    16    1
    51    16    17    1
    52    17    18    1
    53    18    19    1
    54    20    19    1
    55    20    21    1
    56    39    40    1
    57    28    23    1
    58    38    30    1
    59     6     1   ar
    60    20     9    1
    61    25    40    1
    62    38    33    1
    63    20     3    1
    64    21    13    1
    65    21    17    1
    66    11    22    1
