@<TRIPOS>MOLECULE
*****
 43 47 0 0 0
SMALL
GASTEIGER

@<TRIPOS>ATOM
      1 C          61.1971   86.2837    8.6391 C.ar    1  UNL1        0.0611
      2 C          59.8633   86.2102    7.9568 C.ar    1  UNL1        0.1037
      3 N          59.1264   87.4854    8.2410 N.ar    1  UNL1       -0.2269
      4 C          60.0047   88.3470    9.0990 C.ar    1  UNL1        0.1407
      5 N          59.8045   89.7119    9.6879 N.ar    1  UNL1       -0.3374
      6 C          60.8840   90.3341   10.5230 C.ar    1  UNL1        0.0734
      7 C          62.1638   89.5915   10.7690 C.ar    1  UNL1        0.0171
      8 C          62.3640   88.2266   10.1801 C.ar    1  UNL1        0.0046
      9 C          61.2845   87.6043    9.3450 C.ar    1  UNL1        0.0386
     10 H          58.9645   90.1994    9.5264 H       1  UNL1        0.1674
     11 C          63.2434   90.2138   11.6041 C.ar    1  UNL1        0.0015
     12 C          63.5513   89.6620   12.9645 C.ar    1  UNL1        0.0014
     13 C          64.6309   90.2843   13.7996 C.ar    1  UNL1        0.0199
     14 C          65.4026   91.4583   13.2742 C.ar    1  UNL1        0.1222
     15 C          65.0947   92.0101   11.9137 C.ar    1  UNL1        0.0199
     16 C          64.0151   91.3878   11.0787 C.ar    1  UNL1        0.0014
     17 S          66.4821   92.0806   14.1092 S.O2    1  UNL1        0.0634
     18 O          67.4566   91.9011   12.9831 O.2     1  UNL1       -0.1528
     19 O          65.5076   92.2601   15.2353 O.2     1  UNL1       -0.1528
     20 N          67.5617   92.7029   14.9442 N.3     1  UNL1       -0.1504
     21 C          68.4887   91.8335   15.7410 C.3     1  UNL1        0.1279
     22 C          69.5683   92.4558   16.5760 C.3     1  UNL1        0.1613
     23 O          69.7208   93.9475   16.6143 O.3     1  UNL1       -0.3507
     24 C          68.7938   94.8169   15.8176 C.3     1  UNL1        0.1613
     25 C          67.7142   94.1946   14.9826 C.3     1  UNL1        0.1279
     26 C          62.2574   85.2229    8.6191 C.2     1  UNL1        0.2015
     27 O          62.8018   84.7311    7.3109 O.2     1  UNL1       -0.2864
     28 C          62.6455   84.4670   12.4958 C.ar    1  UNL1        0.0920
     29 C          63.8050   83.5155   12.4843 C.ar    1  UNL1        0.0204
     30 C          64.4487   83.1331   11.1845 C.ar    1  UNL1        0.0312
     31 C          63.9328   83.7022    9.8961 C.ar    1  UNL1        0.1454
     32 F          64.5765   83.3198    8.5963 F       1  UNL1       -0.2040
     33 C          62.7733   84.6537    9.9076 C.ar    1  UNL1        0.0951
     34 C          62.1297   85.0360   11.2074 C.ar    1  UNL1        0.1598
     35 F          60.9701   85.9876   11.2188 F       1  UNL1       -0.2026
     36 N          62.0019   84.8493   13.7956 N.pl3   1  UNL1       -0.2166
     37 H          61.0205   84.8669   13.8726 H       1  UNL1        0.1734
     38 S          62.8534   85.2049   14.9781 S.O2    1  UNL1        0.0540
     39 O          63.5154   86.2860   14.1764 O.2     1  UNL1       -0.1545
     40 O          62.1914   84.1237   15.7799 O.2     1  UNL1       -0.1545
     41 C          63.7049   85.5604   16.1607 C.3     1  UNL1        0.1724
     42 C          62.8977   87.7687   17.2661 C.3     1  UNL1        0.0019
     43 C          63.1024   86.2841   17.3283 C.3     1  UNL1        0.0273
@<TRIPOS>BOND
     1    42    43    1
     2    43    41    1
     3    41    38    1
     4    38    39    2
     5    38    40    2
     6    38    36    1
     7    36    28    1
     8    28    29   ar
     9    29    30   ar
    10    30    31   ar
    11    31    32    1
    12    31    33   ar
    13    33    26    1
    14    26    27    2
    15    26     1    1
    16     1     2   ar
    17     2     3   ar
    18     3     4   ar
    19     4     5   ar
    20     5     6   ar
    21     6     7   ar
    22     7    11    1
    23    11    12   ar
    24    12    13   ar
    25    13    14   ar
    26    14    17    1
    27    17    18    2
    28    17    19    2
    29    17    20    1
    30    20    21    1
    31    21    22    1
    32    22    23    1
    33    23    24    1
    34    24    25    1
    35    14    15   ar
    36    15    16   ar
    37     7     8   ar
    38     8     9   ar
    39    33    34   ar
    40    34    35    1
    41    34    28   ar
    42     9     1   ar
    43     9     4    1
    44    16    11   ar
    45    25    20    1
    46    36    37    1
    47     5    10    1
@<TRIPOS>MOLECULE
*****
 43 47 0 0 0
SMALL
GASTEIGER

@<TRIPOS>ATOM
      1 C          64.4907   84.6349   14.4939 C.ar    1  UNL1        0.0611
      2 C          64.7037   83.2825   15.1067 C.ar    1  UNL1        0.1037
      3 N          63.9064   82.2858   14.3187 N.ar    1  UNL1       -0.2269
      4 C          63.2007   83.0222   13.2189 C.ar    1  UNL1        0.1407
      5 N          62.2759   82.5583   12.1329 N.ar    1  UNL1       -0.3374
      6 C          61.7122   83.5463   11.1551 C.ar    1  UNL1        0.0734
      7 C          62.0733   84.9981   11.2634 C.ar    1  UNL1        0.0171
      8 C          62.9981   85.4620   12.3494 C.ar    1  UNL1        0.0046
      9 C          63.5618   84.4740   13.3272 C.ar    1  UNL1        0.0386
     10 H          62.0388   81.6054   12.0619 H       1  UNL1        0.1674
     11 C          61.5095   85.9861   10.2855 C.ar    1  UNL1        0.0015
     12 C          61.2307   85.5672    8.8725 C.ar    1  UNL1        0.0014
     13 C          60.6669   86.5552    7.8946 C.ar    1  UNL1        0.0199
     14 C          60.3820   87.9621    8.3299 C.ar    1  UNL1        0.1222
     15 C          60.6609   88.3810    9.7430 C.ar    1  UNL1        0.0199
     16 C          61.2246   87.3930   10.7208 C.ar    1  UNL1        0.0014
     17 S          59.8183   88.9501    7.3521 S.O2    1  UNL1        0.0634
     18 O          60.2827   90.0784    8.2245 O.2     1  UNL1       -0.1528
     19 O          59.3540   87.8217    6.4797 O.2     1  UNL1       -0.1528
     20 N          59.2546   89.9380    6.3743 N.3     1  UNL1       -0.1504
     21 C          57.7690   90.0693    6.2129 C.3     1  UNL1        0.1279
     22 C          57.2053   91.0573    5.2351 C.3     1  UNL1        0.1613
     23 O          58.1271   91.9140    4.4188 O.3     1  UNL1       -0.3507
     24 C          59.6125   91.7828    4.5802 C.3     1  UNL1        0.1613
     25 C          60.1763   90.7948    5.5580 C.3     1  UNL1        0.1279
     26 C          65.0997   85.9222   14.9650 C.2     1  UNL1        0.2015
     27 O          66.5894   86.0965   14.9511 O.2     1  UNL1       -0.2864
     28 C          63.1348   89.3682   15.0860 C.ar    1  UNL1        0.0920
     29 C          62.4573   89.2615   16.4200 C.ar    1  UNL1        0.0204
     30 C          62.6606   88.0417   17.2690 C.ar    1  UNL1        0.0312
     31 C          63.5414   86.9286   16.7841 C.ar    1  UNL1        0.1454
     32 F          63.7447   85.7088   17.6331 F       1  UNL1       -0.2040
     33 C          64.2189   87.0353   15.4501 C.ar    1  UNL1        0.0951
     34 C          64.0156   88.2551   14.6011 C.ar    1  UNL1        0.1598
     35 F          64.6932   88.3617   13.2670 F       1  UNL1       -0.2026
     36 N          62.9315   90.5880   14.2370 N.pl3   1  UNL1       -0.2166
     37 H          62.0252   90.9477   14.1012 H       1  UNL1        0.1734
     38 S          64.1091   91.2597   13.5951 S.O2    1  UNL1        0.0540
     39 O          63.5671   90.9146   12.2397 O.2     1  UNL1       -0.1545
     40 O          64.6511   91.6048   14.9505 O.2     1  UNL1       -0.1545
     41 C          65.2867   91.9314   12.9532 C.3     1  UNL1        0.1724
     42 C          66.4608   92.8277   10.8159 C.3     1  UNL1        0.0019
     43 C          65.2265   92.3315   11.5088 C.3     1  UNL1        0.0273
@<TRIPOS>BOND
     1    42    43    1
     2    43    41    1
     3    41    38    1
     4    38    39    2
     5    38    40    2
     6    38    36    1
     7    36    28    1
     8    28    29   ar
     9    29    30   ar
    10    30    31   ar
    11    31    32    1
    12    31    33   ar
    13    33    26    1
    14    26    27    2
    15    26     1    1
    16     1     2   ar
    17     2     3   ar
    18     3     4   ar
    19     4     5   ar
    20     5     6   ar
    21     6     7   ar
    22     7    11    1
    23    11    12   ar
    24    12    13   ar
    25    13    14   ar
    26    14    17    1
    27    17    18    2
    28    17    19    2
    29    17    20    1
    30    20    21    1
    31    21    22    1
    32    22    23    1
    33    23    24    1
    34    24    25    1
    35    14    15   ar
    36    15    16   ar
    37     7     8   ar
    38     8     9   ar
    39    33    34   ar
    40    34    35    1
    41    34    28   ar
    42     9     1   ar
    43     9     4    1
    44    16    11   ar
    45    25    20    1
    46    36    37    1
    47     5    10    1
@<TRIPOS>MOLECULE
*****
 43 47 0 0 0
SMALL
GASTEIGER

@<TRIPOS>ATOM
      1 C          60.6559   92.0528    3.4434 C.ar    1  UNL1        0.0611
      2 C          59.5825   92.8358    2.7473 C.ar    1  UNL1        0.1037
      3 N          58.2784   92.5397    3.4267 N.ar    1  UNL1       -0.2269
      4 C          58.5458   91.5738    4.5427 C.ar    1  UNL1        0.1407
      5 N          57.6412   90.9294    5.5508 N.ar    1  UNL1       -0.3374
      6 C          58.2060   89.9840    6.5692 C.ar    1  UNL1        0.0734
      7 C          59.6755   89.6831    6.5795 C.ar    1  UNL1        0.0171
      8 C          60.5801   90.3275    5.5714 C.ar    1  UNL1        0.0046
      9 C          60.0153   91.2728    4.5530 C.ar    1  UNL1        0.0386
     10 H          56.6767   91.1269    5.5440 H       1  UNL1        0.1674
     11 C          60.2403   88.7377    7.5980 C.ar    1  UNL1        0.0015
     12 C          60.1586   87.2569    7.3734 C.ar    1  UNL1        0.0014
     13 C          60.7234   86.3115    8.3919 C.ar    1  UNL1        0.0199
     14 C          61.3699   86.8469    9.6350 C.ar    1  UNL1        0.1222
     15 C          61.4515   88.3278    9.8596 C.ar    1  UNL1        0.0199
     16 C          60.8867   89.2731    8.8412 C.ar    1  UNL1        0.0014
     17 S          61.9347   85.9016   10.6535 S.O2    1  UNL1        0.0634
     18 O          62.7366   85.2256    9.5812 O.2     1  UNL1       -0.1528
     19 O          61.1327   86.5777   11.7257 O.2     1  UNL1       -0.1528
     20 N          62.4994   84.9563   11.6719 N.3     1  UNL1       -0.1504
     21 C          63.0704   85.4877   12.9533 C.3     1  UNL1        0.1279
     22 C          63.6352   84.5424   13.9717 C.3     1  UNL1        0.1613
     23 O          63.6291   83.0656   13.7090 O.3     1  UNL1       -0.3507
     24 C          63.0582   82.5342   12.4277 C.3     1  UNL1        0.1613
     25 C          62.4934   83.4795   11.4092 C.3     1  UNL1        0.1279
     26 C          62.1141   92.0502    3.0917 C.2     1  UNL1        0.2015
     27 O          63.0837   91.2590    3.9185 O.2     1  UNL1       -0.2864
     28 C          62.5164   93.3743   -0.6279 C.ar    1  UNL1        0.0920
     29 C          63.5799   94.4161   -0.4445 C.ar    1  UNL1        0.0204
     30 C          64.1547   94.6693    0.9177 C.ar    1  UNL1        0.0312
     31 C          63.6662   93.8807    2.0964 C.ar    1  UNL1        0.1454
     32 F          64.2411   94.1339    3.4585 F       1  UNL1       -0.2040
     33 C          62.6027   92.8389    1.9129 C.ar    1  UNL1        0.0951
     34 C          62.0279   92.5857    0.5508 C.ar    1  UNL1        0.1598
     35 F          60.9644   91.5439    0.3674 F       1  UNL1       -0.2026
     36 N          61.9416   93.1211   -1.9901 N.pl3   1  UNL1       -0.2166
     37 H          61.1377   92.5614   -2.0888 H       1  UNL1        0.1734
     38 S          62.5915   93.7207   -3.2017 S.O2    1  UNL1        0.0540
     39 O          61.6235   94.8656   -3.1544 O.2     1  UNL1       -0.1545
     40 O          63.5595   92.5759   -3.2490 O.2     1  UNL1       -0.1545
     41 C          63.2415   94.3202   -4.4133 C.3     1  UNL1        0.1724
     42 C          65.0275   95.9447   -3.4531 C.3     1  UNL1        0.0019
     43 C          64.6629   94.7947   -4.3445 C.3     1  UNL1        0.0273
@<TRIPOS>BOND
     1    42    43    1
     2    43    41    1
     3    41    38    1
     4    38    39    2
     5    38    40    2
     6    38    36    1
     7    36    28    1
     8    28    29   ar
     9    29    30   ar
    10    30    31   ar
    11    31    32    1
    12    31    33   ar
    13    33    26    1
    14    26    27    2
    15    26     1    1
    16     1     2   ar
    17     2     3   ar
    18     3     4   ar
    19     4     5   ar
    20     5     6   ar
    21     6     7   ar
    22     7    11    1
    23    11    12   ar
    24    12    13   ar
    25    13    14   ar
    26    14    17    1
    27    17    18    2
    28    17    19    2
    29    17    20    1
    30    20    21    1
    31    21    22    1
    32    22    23    1
    33    23    24    1
    34    24    25    1
    35    14    15   ar
    36    15    16   ar
    37     7     8   ar
    38     8     9   ar
    39    33    34   ar
    40    34    35    1
    41    34    28   ar
    42     9     1   ar
    43     9     4    1
    44    16    11   ar
    45    25    20    1
    46    36    37    1
    47     5    10    1
@<TRIPOS>MOLECULE
*****
 43 47 0 0 0
SMALL
GASTEIGER

@<TRIPOS>ATOM
      1 C          60.5191   88.9469   10.6646 C.ar    1  UNL1        0.0611
      2 C          60.4507   87.5705   11.2570 C.ar    1  UNL1        0.1037
      3 N          60.1510   86.6038   10.1500 N.ar    1  UNL1       -0.2269
      4 C          60.0342   87.3826    8.8733 C.ar    1  UNL1        0.1407
      5 N          59.7501   86.9602    7.4624 N.ar    1  UNL1       -0.3374
      6 C          59.6934   87.9860    6.3695 C.ar    1  UNL1        0.0734
      7 C          59.9210   89.4342    6.6875 C.ar    1  UNL1        0.0171
      8 C          60.2051   89.8565    8.0985 C.ar    1  UNL1        0.0046
      9 C          60.2617   88.8307    9.1914 C.ar    1  UNL1        0.0386
     10 H          59.6007   86.0098    7.2537 H       1  UNL1        0.1674
     11 C          59.8643   90.4600    5.5945 C.ar    1  UNL1        0.0015
     12 C          58.5482   91.0587    5.1954 C.ar    1  UNL1        0.0014
     13 C          58.4916   92.0846    4.1024 C.ar    1  UNL1        0.0199
     14 C          59.7511   92.5115    3.4085 C.ar    1  UNL1        0.1222
     15 C          61.0672   91.9127    3.8077 C.ar    1  UNL1        0.0199
     16 C          61.1238   90.8869    4.9007 C.ar    1  UNL1        0.0014
     17 S          59.6945   93.5373    2.3156 S.O2    1  UNL1        0.0634
     18 O          59.9770   94.6187    3.3159 O.2     1  UNL1       -0.1528
     19 O          59.4120   92.4558    1.3153 O.2     1  UNL1       -0.1528
     20 N          59.6379   94.5630    1.2226 N.3     1  UNL1       -0.1504
     21 C          58.7869   94.3219    0.0111 C.3     1  UNL1        0.1279
     22 C          58.7303   95.3477   -1.0819 C.3     1  UNL1        0.1613
     23 O          59.5247   96.6145   -0.9634 O.3     1  UNL1       -0.3507
     24 C          60.3757   96.8556    0.2481 C.3     1  UNL1        0.1613
     25 C          60.4323   95.8299    1.3411 C.3     1  UNL1        0.1279
     26 C          60.7963   90.2165   11.4137 C.2     1  UNL1        0.2015
     27 O          59.6583   91.0572   11.9117 O.2     1  UNL1       -0.2864
     28 C          64.2324   90.9019   13.2777 C.ar    1  UNL1        0.0920
     29 C          65.0421   91.5032   12.1673 C.ar    1  UNL1        0.0204
     30 C          64.4366   91.6755   10.8059 C.ar    1  UNL1        0.0312
     31 C          63.0214   91.2467   10.5546 C.ar    1  UNL1        0.1454
     32 F          62.4159   91.4191    9.1932 F       1  UNL1       -0.2040
     33 C          62.2116   90.6454   11.6649 C.ar    1  UNL1        0.0951
     34 C          62.8171   90.4730   13.0264 C.ar    1  UNL1        0.1598
     35 F          62.0073   89.8717   14.1367 F       1  UNL1       -0.2026
     36 N          64.8379   90.7295   14.6391 N.pl3   1  UNL1       -0.2166
     37 H          64.6395   89.9228   15.1675 H       1  UNL1        0.1734
     38 S          65.7456   91.7861   15.1955 S.O2    1  UNL1        0.0540
     39 O          64.6030   92.3514   15.9860 O.2     1  UNL1       -0.1545
     40 O          66.8882   91.2208   14.4050 O.2     1  UNL1       -0.1545
     41 C          66.6533   92.8427   15.7518 C.3     1  UNL1        0.1724
     42 C          69.0496   93.7856   16.0969 C.3     1  UNL1        0.0019
     43 C          68.1413   92.6676   15.6786 C.3     1  UNL1        0.0273
@<TRIPOS>BOND
     1    42    43    1
     2    43    41    1
     3    41    38    1
     4    38    39    2
     5    38    40    2
     6    38    36    1
     7    36    28    1
     8    28    29   ar
     9    29    30   ar
    10    30    31   ar
    11    31    32    1
    12    31    33   ar
    13    33    26    1
    14    26    27    2
    15    26     1    1
    16     1     2   ar
    17     2     3   ar
    18     3     4   ar
    19     4     5   ar
    20     5     6   ar
    21     6     7   ar
    22     7    11    1
    23    11    12   ar
    24    12    13   ar
    25    13    14   ar
    26    14    17    1
    27    17    18    2
    28    17    19    2
    29    17    20    1
    30    20    21    1
    31    21    22    1
    32    22    23    1
    33    23    24    1
    34    24    25    1
    35    14    15   ar
    36    15    16   ar
    37     7     8   ar
    38     8     9   ar
    39    33    34   ar
    40    34    35    1
    41    34    28   ar
    42     9     1   ar
    43     9     4    1
    44    16    11   ar
    45    25    20    1
    46    36    37    1
    47     5    10    1
@<TRIPOS>MOLECULE
*****
 43 47 0 0 0
SMALL
GASTEIGER

@<TRIPOS>ATOM
      1 C          60.4456   89.1049   10.5769 C.ar    1  UNL1        0.0611
      2 C          60.3410   87.7405   11.1914 C.ar    1  UNL1        0.1037
      3 N          60.0326   86.7619   10.0973 N.ar    1  UNL1       -0.2269
      4 C          59.9466   87.5214    8.8066 C.ar    1  UNL1        0.1407
      5 N          59.6689   87.0814    7.3998 N.ar    1  UNL1       -0.3374
      6 C          59.6464   88.0896    6.2893 C.ar    1  UNL1        0.0734
      7 C          59.9017   89.5377    6.5858 C.ar    1  UNL1        0.0171
      8 C          60.1794   89.9776    7.9926 C.ar    1  UNL1        0.0046
      9 C          60.2019   88.9695    9.1030 C.ar    1  UNL1        0.0386
     10 H          59.5014   86.1310    7.2052 H       1  UNL1        0.1674
     11 C          59.8792   90.5459    5.4753 C.ar    1  UNL1        0.0015
     12 C          58.5985   91.2409    5.1191 C.ar    1  UNL1        0.0014
     13 C          58.5760   92.2491    4.0086 C.ar    1  UNL1        0.0199
     14 C          59.8342   92.5622    3.2543 C.ar    1  UNL1        0.1222
     15 C          61.1149   91.8671    3.6106 C.ar    1  UNL1        0.0199
     16 C          61.1373   90.8590    4.7210 C.ar    1  UNL1        0.0014
     17 S          59.8118   93.5703    2.1439 S.O2    1  UNL1        0.0634
     18 O          59.6278   92.4663    1.1453 O.2     1  UNL1       -0.1528
     19 O          59.9957   94.6743    3.1425 O.2     1  UNL1       -0.1528
     20 N          59.7893   94.5784    1.0334 N.3     1  UNL1       -0.1504
     21 C          60.7728   95.7111    1.0287 C.3     1  UNL1        0.1279
     22 C          60.7503   96.7192   -0.0817 C.3     1  UNL1        0.1613
     23 O          59.7445   96.5947   -1.1875 O.3     1  UNL1       -0.3507
     24 C          58.7610   95.4621   -1.1828 C.3     1  UNL1        0.1613
     25 C          58.7834   94.4539   -0.0723 C.3     1  UNL1        0.1279
     26 C          60.7419   90.3807   11.3079 C.2     1  UNL1        0.2015
     27 O          59.6301   91.3322   11.6370 O.2     1  UNL1       -0.2864
     28 C          64.0093   90.7919   13.5227 C.ar    1  UNL1        0.0920
     29 C          64.9667   91.3539   12.5139 C.ar    1  UNL1        0.0204
     30 C          64.5158   91.5914   11.1032 C.ar    1  UNL1        0.0312
     31 C          63.1076   91.2671   10.7011 C.ar    1  UNL1        0.1454
     32 F          62.6567   91.5046    9.2904 F       1  UNL1       -0.2040
     33 C          62.1502   90.7051   11.7099 C.ar    1  UNL1        0.0951
     34 C          62.6011   90.4676   13.1207 C.ar    1  UNL1        0.1598
     35 F          61.6437   89.9056   14.1295 F       1  UNL1       -0.2026
     36 N          64.4602   90.5544   14.9335 N.pl3   1  UNL1       -0.2166
     37 H          65.2709   90.9982   15.2725 H       1  UNL1        0.1734
     38 S          63.6759   89.6405   15.8277 S.O2    1  UNL1        0.0540
     39 O          64.0698   88.4697   14.9767 O.2     1  UNL1       -0.1545
     40 O          63.2820   90.8112   16.6787 O.2     1  UNL1       -0.1545
     41 C          62.8915   88.7267   16.7219 C.3     1  UNL1        0.1724
     42 C          62.5051   86.3722   17.7503 C.3     1  UNL1        0.0019
     43 C          63.2657   87.2779   16.8277 C.3     1  UNL1        0.0273
@<TRIPOS>BOND
     1    42    43    1
     2    43    41    1
     3    41    38    1
     4    38    39    2
     5    38    40    2
     6    38    36    1
     7    36    28    1
     8    28    29   ar
     9    29    30   ar
    10    30    31   ar
    11    31    32    1
    12    31    33   ar
    13    33    26    1
    14    26    27    2
    15    26     1    1
    16     1     2   ar
    17     2     3   ar
    18     3     4   ar
    19     4     5   ar
    20     5     6   ar
    21     6     7   ar
    22     7    11    1
    23    11    12   ar
    24    12    13   ar
    25    13    14   ar
    26    14    17    1
    27    17    18    2
    28    17    19    2
    29    17    20    1
    30    20    21    1
    31    21    22    1
    32    22    23    1
    33    23    24    1
    34    24    25    1
    35    14    15   ar
    36    15    16   ar
    37     7     8   ar
    38     8     9   ar
    39    33    34   ar
    40    34    35    1
    41    34    28   ar
    42     9     1   ar
    43     9     4    1
    44    16    11   ar
    45    25    20    1
    46    36    37    1
    47     5    10    1
@<TRIPOS>MOLECULE
*****
 43 47 0 0 0
SMALL
GASTEIGER

@<TRIPOS>ATOM
      1 C          64.8128   91.1536   14.9746 C.ar    1  UNL1        0.0611
      2 C          64.6568   92.1121   16.1178 C.ar    1  UNL1        0.1037
      3 N          63.9987   91.3803   17.2498 N.ar    1  UNL1       -0.2269
      4 C          63.7481   89.9694   16.8062 C.ar    1  UNL1        0.1407
      5 N          63.1267   88.7943   17.5011 N.ar    1  UNL1       -0.3374
      6 C          63.0084   87.4790   16.7898 C.ar    1  UNL1        0.0734
      7 C          63.5116   87.3389   15.3836 C.ar    1  UNL1        0.0171
      8 C          64.1330   88.5140   14.6888 C.ar    1  UNL1        0.0046
      9 C          64.2512   89.8293   15.4001 C.ar    1  UNL1        0.0386
     10 H          62.7964   88.8862   18.4239 H       1  UNL1        0.1674
     11 C          63.3933   86.0235   14.6723 C.ar    1  UNL1        0.0015
     12 C          63.4744   85.9703   13.1755 C.ar    1  UNL1        0.0014
     13 C          63.3561   84.6550   12.4642 C.ar    1  UNL1        0.0199
     14 C          63.1568   83.3928   13.2498 C.ar    1  UNL1        0.1222
     15 C          63.0758   83.4460   14.7467 C.ar    1  UNL1        0.0199
     16 C          63.1940   84.7613   15.4579 C.ar    1  UNL1        0.0014
     17 S          63.0385   82.0775   12.5386 S.O2    1  UNL1        0.0634
     18 O          62.0972   81.5886   13.5992 O.2     1  UNL1       -0.1528
     19 O          63.9798   82.5663   11.4780 O.2     1  UNL1       -0.1528
     20 N          62.9203   80.7621   11.8274 N.3     1  UNL1       -0.1504
     21 C          63.1012   80.6949   10.3398 C.3     1  UNL1        0.1279
     22 C          62.9829   79.3796    9.6285 C.3     1  UNL1        0.1613
     23 O          62.6838   78.1314   10.4048 O.3     1  UNL1       -0.3507
     24 C          62.5029   78.1986   11.8923 C.3     1  UNL1        0.1613
     25 C          62.6211   79.5140   12.6036 C.3     1  UNL1        0.1279
     26 C          65.4233   91.4646   13.6403 C.2     1  UNL1        0.2015
     27 O          66.8847   91.7875   13.5410 O.2     1  UNL1       -0.2864
     28 C          62.3110   90.9340   11.2356 C.ar    1  UNL1        0.0920
     29 C          62.8702   91.4289    9.9347 C.ar    1  UNL1        0.0204
     30 C          64.2805   91.9357    9.8690 C.ar    1  UNL1        0.0312
     31 C          65.1315   91.9476   11.1041 C.ar    1  UNL1        0.1454
     32 F          66.5418   92.4544   11.0384 F       1  UNL1       -0.2040
     33 C          64.5722   91.4527   12.4050 C.ar    1  UNL1        0.0951
     34 C          63.1620   90.9459   12.4707 C.ar    1  UNL1        0.1598
     35 F          62.6028   90.4510   13.7717 F       1  UNL1       -0.2026
     36 N          60.9007   90.4272   11.3013 N.pl3   1  UNL1       -0.2166
     37 H          60.2031   90.9678   11.7376 H       1  UNL1        0.1734
     38 S          60.5533   89.0966   10.7023 S.O2    1  UNL1        0.0540
     39 O          60.0176   89.7856    9.4824 O.2     1  UNL1       -0.1545
     40 O          61.0890   88.4075   11.9222 O.2     1  UNL1       -0.1545
     41 C          60.2059   87.7660   10.1034 C.3     1  UNL1        0.1724
     42 C          62.2542   86.4719    9.1653 C.3     1  UNL1        0.0019
     43 C          61.1757   86.6254   10.1964 C.3     1  UNL1        0.0273
@<TRIPOS>BOND
     1    42    43    1
     2    43    41    1
     3    41    38    1
     4    38    39    2
     5    38    40    2
     6    38    36    1
     7    36    28    1
     8    28    29   ar
     9    29    30   ar
    10    30    31   ar
    11    31    32    1
    12    31    33   ar
    13    33    26    1
    14    26    27    2
    15    26     1    1
    16     1     2   ar
    17     2     3   ar
    18     3     4   ar
    19     4     5   ar
    20     5     6   ar
    21     6     7   ar
    22     7    11    1
    23    11    12   ar
    24    12    13   ar
    25    13    14   ar
    26    14    17    1
    27    17    18    2
    28    17    19    2
    29    17    20    1
    30    20    21    1
    31    21    22    1
    32    22    23    1
    33    23    24    1
    34    24    25    1
    35    14    15   ar
    36    15    16   ar
    37     7     8   ar
    38     8     9   ar
    39    33    34   ar
    40    34    35    1
    41    34    28   ar
    42     9     1   ar
    43     9     4    1
    44    16    11   ar
    45    25    20    1
    46    36    37    1
    47     5    10    1
@<TRIPOS>MOLECULE
*****
 43 47 0 0 0
SMALL
GASTEIGER

@<TRIPOS>ATOM
      1 C          60.4849   91.9577    3.5731 C.ar    1  UNL1        0.0611
      2 C          59.3813   92.7314    2.9148 C.ar    1  UNL1        0.1037
      3 N          58.1000   92.4051    3.6233 N.ar    1  UNL1       -0.2269
      4 C          58.4118   91.4298    4.7195 C.ar    1  UNL1        0.1407
      5 N          57.5441   90.7578    5.7419 N.ar    1  UNL1       -0.3374
      6 C          58.1503   89.8093    6.7332 C.ar    1  UNL1        0.0734
      7 C          59.6242   89.5328    6.7022 C.ar    1  UNL1        0.0171
      8 C          60.4920   90.2048    5.6798 C.ar    1  UNL1        0.0046
      9 C          59.8858   91.1533    4.6884 C.ar    1  UNL1        0.0386
     10 H          56.5767   90.9393    5.7623 H       1  UNL1        0.1674
     11 C          60.2304   88.5842    7.6936 C.ar    1  UNL1        0.0015
     12 C          60.1604   87.1049    7.4557 C.ar    1  UNL1        0.0014
     13 C          60.7666   86.1563    8.4471 C.ar    1  UNL1        0.0199
     14 C          61.4427   86.6871    9.6763 C.ar    1  UNL1        0.1222
     15 C          61.5127   88.1665    9.9142 C.ar    1  UNL1        0.0199
     16 C          60.9066   89.1150    8.9228 C.ar    1  UNL1        0.0014
     17 S          62.0489   85.7386   10.6677 S.O2    1  UNL1        0.0634
     18 O          61.2870   86.4073   11.7733 O.2     1  UNL1       -0.1528
     19 O          62.8108   85.0699    9.5621 O.2     1  UNL1       -0.1528
     20 N          62.6551   84.7901   11.6591 N.3     1  UNL1       -0.1504
     21 C          62.8054   83.3383   11.3130 C.3     1  UNL1        0.1279
     22 C          63.4115   82.3898   12.3044 C.3     1  UNL1        0.1613
     23 O          63.8674   82.8930   13.6419 O.3     1  UNL1       -0.3507
     24 C          63.7171   84.3447   13.9880 C.3     1  UNL1        0.1613
     25 C          63.1109   85.2933   12.9966 C.3     1  UNL1        0.1279
     26 C          61.9334   91.9839    3.1843 C.2     1  UNL1        0.2015
     27 O          62.9432   91.2347    4.0022 O.2     1  UNL1       -0.2864
     28 C          62.0893   93.3643   -0.5333 C.ar    1  UNL1        0.0920
     29 C          63.2497   94.3100   -0.4361 C.ar    1  UNL1        0.0204
     30 C          63.9712   94.4802    0.8679 C.ar    1  UNL1        0.0312
     31 C          63.5325   93.7049    2.0747 C.ar    1  UNL1        0.1454
     32 F          64.2541   93.8752    3.3787 F       1  UNL1       -0.2040
     33 C          62.3722   92.7593    1.9775 C.ar    1  UNL1        0.0951
     34 C          61.6506   92.5890    0.6735 C.ar    1  UNL1        0.1598
     35 F          60.4903   91.6434    0.5764 F       1  UNL1       -0.2026
     36 N          61.3678   93.1941   -1.8373 N.pl3   1  UNL1       -0.2166
     37 H          61.7766   92.6663   -2.5608 H       1  UNL1        0.1734
     38 S          60.0234   93.8280   -2.0388 S.O2    1  UNL1        0.0540
     39 O          59.3744   92.4783   -1.9552 O.2     1  UNL1       -0.1545
     40 O          60.6724   95.1778   -2.1224 O.2     1  UNL1       -0.1545
     41 C          58.6790   94.4620   -2.2404 C.3     1  UNL1        0.1724
     42 C          56.1736   94.4530   -1.5526 C.3     1  UNL1        0.0019
     43 C          57.4328   93.7077   -1.8826 C.3     1  UNL1        0.0273
@<TRIPOS>BOND
     1    42    43    1
     2    43    41    1
     3    41    38    1
     4    38    39    2
     5    38    40    2
     6    38    36    1
     7    36    28    1
     8    28    29   ar
     9    29    30   ar
    10    30    31   ar
    11    31    32    1
    12    31    33   ar
    13    33    26    1
    14    26    27    2
    15    26     1    1
    16     1     2   ar
    17     2     3   ar
    18     3     4   ar
    19     4     5   ar
    20     5     6   ar
    21     6     7   ar
    22     7    11    1
    23    11    12   ar
    24    12    13   ar
    25    13    14   ar
    26    14    17    1
    27    17    18    2
    28    17    19    2
    29    17    20    1
    30    20    21    1
    31    21    22    1
    32    22    23    1
    33    23    24    1
    34    24    25    1
    35    14    15   ar
    36    15    16   ar
    37     7     8   ar
    38     8     9   ar
    39    33    34   ar
    40    34    35    1
    41    34    28   ar
    42     9     1   ar
    43     9     4    1
    44    16    11   ar
    45    25    20    1
    46    36    37    1
    47     5    10    1
@<TRIPOS>MOLECULE
*****
 43 47 0 0 0
SMALL
GASTEIGER

@<TRIPOS>ATOM
      1 C          60.5799   89.0830   10.6611 C.ar    1  UNL1        0.0611
      2 C          60.5208   87.7182   11.2805 C.ar    1  UNL1        0.1037
      3 N          60.2003   86.7311   10.1975 N.ar    1  UNL1       -0.2269
      4 C          60.0613   87.4859    8.9087 C.ar    1  UNL1        0.1407
      5 N          59.7513   87.0375    7.5113 N.ar    1  UNL1       -0.3374
      6 C          59.6760   88.0425    6.4004 C.ar    1  UNL1        0.0734
      7 C          59.9107   89.4961    6.6870 C.ar    1  UNL1        0.0171
      8 C          60.2206   89.9446    8.0844 C.ar    1  UNL1        0.0046
      9 C          60.2959   88.9395    9.1952 C.ar    1  UNL1        0.0386
     10 H          59.5974   86.0834    7.3232 H       1  UNL1        0.1674
     11 C          59.8353   90.5012    5.5760 C.ar    1  UNL1        0.0015
     12 C          61.0779   90.8908    4.8315 C.ar    1  UNL1        0.0014
     13 C          61.0026   91.8959    3.7205 C.ar    1  UNL1        0.0199
     14 C          59.6847   92.5114    3.3541 C.ar    1  UNL1        0.1222
     15 C          58.4421   92.1218    4.0987 C.ar    1  UNL1        0.0199
     16 C          58.5174   91.1167    5.2096 C.ar    1  UNL1        0.0014
     17 S          59.6093   93.5164    2.2432 S.O2    1  UNL1        0.0634
     18 O          60.0142   94.6010    3.1970 O.2     1  UNL1       -0.1528
     19 O          59.2044   92.4319    1.2895 O.2     1  UNL1       -0.1528
     20 N          59.5339   94.5215    1.1323 N.3     1  UNL1       -0.1504
     21 C          58.7347   94.2184   -0.1004 C.3     1  UNL1        0.1279
     22 C          58.6594   95.2235   -1.2113 C.3     1  UNL1        0.1613
     23 O          59.3832   96.5316   -1.0895 O.3     1  UNL1       -0.3507
     24 C          60.1824   96.8347    0.1431 C.3     1  UNL1        0.1613
     25 C          60.2578   95.8296    1.2541 C.3     1  UNL1        0.1279
     26 C          60.8718   90.3662   11.3811 C.2     1  UNL1        0.2015
     27 O          59.7638   91.3375   11.6617 O.2     1  UNL1       -0.2864
     28 C          64.6359   91.6213   11.3000 C.ar    1  UNL1        0.0920
     29 C          65.0715   91.3015   12.6993 C.ar    1  UNL1        0.0204
     30 C          64.1073   90.6699   13.6591 C.ar    1  UNL1        0.0312
     31 C          62.7074   90.3581   13.2198 C.ar    1  UNL1        0.1454
     32 F          61.7431   89.7265   14.1796 F       1  UNL1       -0.2040
     33 C          62.2717   90.6779   11.8205 C.ar    1  UNL1        0.0951
     34 C          63.2360   91.3095   10.8607 C.ar    1  UNL1        0.1598
     35 F          62.8002   91.6293    9.4614 F       1  UNL1       -0.2026
     36 N          65.6001   92.2529   10.3401 N.pl3   1  UNL1       -0.2166
     37 H          65.8273   91.7958    9.4983 H       1  UNL1        0.1734
     38 S          66.2181   93.5810   10.6629 S.O2    1  UNL1        0.0540
     39 O          64.9061   94.2568   10.3947 O.2     1  UNL1       -0.1545
     40 O          67.5302   92.9052   10.9311 O.2     1  UNL1       -0.1545
     41 C          66.8363   94.9090   10.9857 C.3     1  UNL1        0.1724
     42 C          67.4409   95.3420    8.4962 C.3     1  UNL1        0.0019
     43 C          67.1888   95.8606    9.8810 C.3     1  UNL1        0.0273
@<TRIPOS>BOND
     1    42    43    1
     2    43    41    1
     3    41    38    1
     4    38    39    2
     5    38    40    2
     6    38    36    1
     7    36    28    1
     8    28    29   ar
     9    29    30   ar
    10    30    31   ar
    11    31    32    1
    12    31    33   ar
    13    33    26    1
    14    26    27    2
    15    26     1    1
    16     1     2   ar
    17     2     3   ar
    18     3     4   ar
    19     4     5   ar
    20     5     6   ar
    21     6     7   ar
    22     7    11    1
    23    11    12   ar
    24    12    13   ar
    25    13    14   ar
    26    14    17    1
    27    17    18    2
    28    17    19    2
    29    17    20    1
    30    20    21    1
    31    21    22    1
    32    22    23    1
    33    23    24    1
    34    24    25    1
    35    14    15   ar
    36    15    16   ar
    37     7     8   ar
    38     8     9   ar
    39    33    34   ar
    40    34    35    1
    41    34    28   ar
    42     9     1   ar
    43     9     4    1
    44    16    11   ar
    45    25    20    1
    46    36    37    1
    47     5    10    1
@<TRIPOS>MOLECULE
*****
 43 47 0 0 0
SMALL
GASTEIGER

@<TRIPOS>ATOM
      1 C          60.6804   86.6461    8.3846 C.ar    1  UNL1        0.0611
      2 C          59.2631   86.5893    7.8967 C.ar    1  UNL1        0.1037
      3 N          58.5483   87.8055    8.4067 N.ar    1  UNL1       -0.2269
      4 C          59.5238   88.6138    9.2098 C.ar    1  UNL1        0.1407
      5 N          59.3825   89.9097    9.9517 N.ar    1  UNL1       -0.3374
      6 C          60.5589   90.4891   10.6800 C.ar    1  UNL1        0.0734
      7 C          61.8766   89.7726   10.6663 C.ar    1  UNL1        0.0171
      8 C          62.0179   88.4767    9.9244 C.ar    1  UNL1        0.0046
      9 C          60.8416   87.8973    9.1961 C.ar    1  UNL1        0.0386
     10 H          58.5176   90.3800    9.9607 H       1  UNL1        0.1674
     11 C          63.0530   90.3521   11.3946 C.ar    1  UNL1        0.0015
     12 C          63.4557   89.7985   12.7293 C.ar    1  UNL1        0.0014
     13 C          64.6321   90.3780   13.4576 C.ar    1  UNL1        0.0199
     14 C          65.4058   91.5110   12.8512 C.ar    1  UNL1        0.1222
     15 C          65.0030   92.0645   11.5164 C.ar    1  UNL1        0.0199
     16 C          63.8266   91.4851   10.7882 C.ar    1  UNL1        0.0014
     17 S          66.5821   92.0904   13.5794 S.O2    1  UNL1        0.0634
     18 O          66.8303   93.0263   12.4338 O.2     1  UNL1       -0.1528
     19 O          66.3339   91.1546   14.7250 O.2     1  UNL1       -0.1528
     20 N          67.7585   92.6699   14.3076 N.3     1  UNL1       -0.1504
     21 C          69.1498   92.2420   13.9455 C.3     1  UNL1        0.1279
     22 C          70.3262   92.8214   14.6738 C.3     1  UNL1        0.1613
     23 O          70.1113   93.8288   15.7641 O.3     1  UNL1       -0.3507
     24 C          68.7200   94.2568   16.1263 C.3     1  UNL1        0.1613
     25 C          67.5435   93.6773   15.3980 C.3     1  UNL1        0.1279
     26 C          61.7490   85.6300    8.1093 C.2     1  UNL1        0.2015
     27 O          62.0398   85.2108    6.6988 O.2     1  UNL1       -0.2864
     28 C          62.8402   84.6333   11.7925 C.ar    1  UNL1        0.0920
     29 C          64.0823   83.8396   11.5151 C.ar    1  UNL1        0.0204
     30 C          64.5467   83.6427   10.1025 C.ar    1  UNL1        0.0312
     31 C          63.7690   84.2394    8.9672 C.ar    1  UNL1        0.1454
     32 F          64.2334   84.0425    7.5546 F       1  UNL1       -0.2040
     33 C          62.5268   85.0332    9.2446 C.ar    1  UNL1        0.0951
     34 C          62.0624   85.2301   10.6572 C.ar    1  UNL1        0.1598
     35 F          60.8202   86.0239   10.9345 F       1  UNL1       -0.2026
     36 N          62.3758   84.8303   13.2052 N.pl3   1  UNL1       -0.2166
     37 H          62.2561   85.7401   13.5617 H       1  UNL1        0.1734
     38 S          62.0936   83.6410   14.0746 S.O2    1  UNL1        0.0540
     39 O          61.9488   84.5443   15.2633 O.2     1  UNL1       -0.1545
     40 O          62.2385   82.7376   12.8859 O.2     1  UNL1       -0.1545
     41 C          61.8115   82.4516   14.9439 C.3     1  UNL1        0.1724
     42 C          60.2330   80.5145   14.2326 C.3     1  UNL1        0.0019
     43 C          61.6107   81.1004   14.3242 C.3     1  UNL1        0.0273
@<TRIPOS>BOND
     1    42    43    1
     2    43    41    1
     3    41    38    1
     4    38    39    2
     5    38    40    2
     6    38    36    1
     7    36    28    1
     8    28    29   ar
     9    29    30   ar
    10    30    31   ar
    11    31    32    1
    12    31    33   ar
    13    33    26    1
    14    26    27    2
    15    26     1    1
    16     1     2   ar
    17     2     3   ar
    18     3     4   ar
    19     4     5   ar
    20     5     6   ar
    21     6     7   ar
    22     7    11    1
    23    11    12   ar
    24    12    13   ar
    25    13    14   ar
    26    14    17    1
    27    17    18    2
    28    17    19    2
    29    17    20    1
    30    20    21    1
    31    21    22    1
    32    22    23    1
    33    23    24    1
    34    24    25    1
    35    14    15   ar
    36    15    16   ar
    37     7     8   ar
    38     8     9   ar
    39    33    34   ar
    40    34    35    1
    41    34    28   ar
    42     9     1   ar
    43     9     4    1
    44    16    11   ar
    45    25    20    1
    46    36    37    1
    47     5    10    1
