@<TRIPOS>MOLECULE
*****
 33 36 0 0 0
SMALL
GASTEIGER

@<TRIPOS>ATOM
      1 C          63.3831   89.5859   13.9536 C.3     1  UNL1        0.1168
      2 C          63.6648   90.4225   12.7409 C.ar    1  UNL1        0.0034
      3 C          64.8547   91.3356   12.7195 C.ar    1  UNL1       -0.0021
      4 C          65.1364   92.1722   11.5068 C.ar    1  UNL1       -0.0002
      5 C          64.2282   92.0957   10.3155 C.ar    1  UNL1        0.0005
      6 C          63.0384   91.1827   10.3368 C.ar    1  UNL1        0.0062
      7 C          62.7566   90.3460   11.5496 C.ar    1  UNL1        0.0271
      8 S          61.5668   89.4330   11.5709 S.3     1  UNL1       -0.0874
      9 C          61.5563   88.1947   10.7244 C.ar    1  UNL1        0.0278
     10 C          62.3160   86.9787   11.1649 C.ar    1  UNL1        0.0062
     11 C          62.3055   85.7403   10.3184 C.ar    1  UNL1        0.0005
     12 C          61.5354   85.7182    9.0314 C.ar    1  UNL1       -0.0002
     13 C          60.7757   86.9342    8.5908 C.ar    1  UNL1       -0.0014
     14 C          60.7862   88.1725    9.4374 C.ar    1  UNL1        0.0130
     15 C          60.0265   89.3886    8.9968 C.3     1  UNL1        0.1641
     16 O          59.9069   89.7100    7.5366 O.3     1  UNL1       -0.3772
     17 H          60.7826   89.9279    7.1807 H       1  UNL1        0.2109
     18 C          63.8411   87.4229   15.3180 C.2     1  UNL1        0.2252
     19 O          63.3241   88.0941   16.5558 O.2     1  UNL1       -0.2750
     20 N          63.8706   88.1688   14.0169 N.am    1  UNL1       -0.3003
     21 H          64.2100   87.7282   13.2045 H       1  UNL1        0.1497
     22 C          64.3287   86.0057   15.3813 C.3     1  UNL1        0.1154
     23 C          62.9668   85.4208   16.7352 C.3     1  UNL1        0.0335
     24 C          63.3446   84.8738   15.3906 C.3     1  UNL1        0.1377
     25 C          63.9280   84.5634   14.0440 C.3     1  UNL1        0.0613
     26 C          63.2255   83.3539   13.5020 C.3     1  UNL1        0.1290
     27 C          62.4388   82.1441   13.0926 C.3     1  UNL1        0.0305
     28 C          62.7068   81.4871   11.7711 C.3     1  UNL1        0.0025
     29 C          63.7616   82.0399   10.8589 C.3     1  UNL1        0.0002
     30 C          64.5482   83.2497   11.2683 C.3     1  UNL1        0.0025
     31 C          64.2802   83.9066   12.5898 C.3     1  UNL1        0.0305
     32 O          62.2078   82.9168   14.5136 O.3     1  UNL1       -0.2256
     33 O          62.2814   83.8561   15.6809 O.3     1  UNL1       -0.2251
@<TRIPOS>BOND
     1    23    24    1
     2    24    22    1
     3    22    18    1
     4    18    19    2
     5    18    20   am
     6    20     1    1
     7     1     2    1
     8     2     3   ar
     9     3     4   ar
    10     4     5   ar
    11     5     6   ar
    12     6     7   ar
    13     7     8    1
    14     8     9    1
    15     9    10   ar
    16    10    11   ar
    17    11    12   ar
    18    12    13   ar
    19    13    14   ar
    20    14    15    1
    21    15    16    1
    22    24    25    1
    23    25    26    1
    24    26    27    1
    25    27    28    1
    26    28    29    1
    27    29    30    1
    28    30    31    1
    29    26    32    1
    30    32    33    1
    31    33    24    1
    32     7     2   ar
    33    14     9   ar
    34    31    26    1
    35    20    21    1
    36    16    17    1
@<TRIPOS>MOLECULE
*****
 33 36 0 0 0
SMALL
GASTEIGER

@<TRIPOS>ATOM
      1 C          62.9093   90.7144   11.1135 C.3     1  UNL1        0.1168
      2 C          63.8322   90.7550   12.2953 C.ar    1  UNL1        0.0034
      3 C          63.7660   89.6768   13.3360 C.ar    1  UNL1       -0.0021
      4 C          64.6889   89.7174   14.5178 C.ar    1  UNL1       -0.0002
      5 C          65.6780   90.8362   14.6588 C.ar    1  UNL1        0.0005
      6 C          65.7443   91.9143   13.6182 C.ar    1  UNL1        0.0062
      7 C          64.8214   91.8738   12.4363 C.ar    1  UNL1        0.0271
      8 S          64.8876   92.9519   11.3957 S.3     1  UNL1       -0.0874
      9 C          66.1549   93.1726   10.6239 C.ar    1  UNL1        0.0278
     10 C          67.0905   92.0270   10.3751 C.ar    1  UNL1        0.0062
     11 C          68.3578   92.2477    9.6033 C.ar    1  UNL1        0.0005
     12 C          68.6892   93.6140    9.0805 C.ar    1  UNL1       -0.0002
     13 C          67.7535   94.7596    9.3294 C.ar    1  UNL1       -0.0014
     14 C          66.4863   94.5389   10.1011 C.ar    1  UNL1        0.0130
     15 C          65.5506   95.6846   10.3500 C.3     1  UNL1        0.1641
     16 O          65.5739   96.3991   11.6687 O.3     1  UNL1       -0.3772
     17 H          65.2809   95.7951   12.3689 H       1  UNL1        0.2109
     18 C          61.0444   88.9115   11.2609 C.2     1  UNL1        0.2252
     19 O          60.3449   89.7210   12.3122 O.2     1  UNL1       -0.2750
     20 N          62.3267   89.4082   10.6615 N.am    1  UNL1       -0.3003
     21 H          62.7858   88.8769    9.9714 H       1  UNL1        0.1497
     22 C          60.4617   87.6052   10.8088 C.3     1  UNL1        0.1154
     23 C          60.3805   87.7056    8.8056 C.3     1  UNL1        0.0335
     24 C          61.1449   86.8108    9.7356 C.3     1  UNL1        0.1377
     25 C          61.7665   86.0820   10.8899 C.3     1  UNL1        0.0613
     26 C          62.6741   85.0240   10.3357 C.3     1  UNL1        0.1290
     27 C          63.5392   84.0161    9.6388 C.3     1  UNL1        0.0305
     28 C          64.3628   83.0525   10.4407 C.3     1  UNL1        0.0025
     29 C          64.3213   83.0967   11.9394 C.3     1  UNL1        0.0002
     30 C          63.4562   84.1046   12.6363 C.3     1  UNL1        0.0025
     31 C          62.6326   85.0683   11.8345 C.3     1  UNL1        0.0305
     32 O          62.6135   85.0990    8.8388 O.3     1  UNL1       -0.2256
     33 O          61.6684   86.2033    8.4678 O.3     1  UNL1       -0.2251
@<TRIPOS>BOND
     1    23    24    1
     2    24    22    1
     3    22    18    1
     4    18    19    2
     5    18    20   am
     6    20     1    1
     7     1     2    1
     8     2     3   ar
     9     3     4   ar
    10     4     5   ar
    11     5     6   ar
    12     6     7   ar
    13     7     8    1
    14     8     9    1
    15     9    10   ar
    16    10    11   ar
    17    11    12   ar
    18    12    13   ar
    19    13    14   ar
    20    14    15    1
    21    15    16    1
    22    24    25    1
    23    25    26    1
    24    26    27    1
    25    27    28    1
    26    28    29    1
    27    29    30    1
    28    30    31    1
    29    26    32    1
    30    32    33    1
    31    33    24    1
    32     7     2   ar
    33    14     9   ar
    34    31    26    1
    35    20    21    1
    36    16    17    1
@<TRIPOS>MOLECULE
*****
 33 36 0 0 0
SMALL
GASTEIGER

@<TRIPOS>ATOM
      1 C          61.2322   86.6440   11.3050 C.3     1  UNL1        0.1168
      2 C          61.7609   85.9569   10.0810 C.ar    1  UNL1        0.0034
      3 C          61.1986   86.2914    8.7312 C.ar    1  UNL1       -0.0021
      4 C          61.7273   85.6042    7.5072 C.ar    1  UNL1       -0.0002
      5 C          62.8183   84.5825    7.6329 C.ar    1  UNL1        0.0005
      6 C          63.3806   84.2480    8.9826 C.ar    1  UNL1        0.0062
      7 C          62.8519   84.9352   10.2067 C.ar    1  UNL1        0.0271
      8 S          63.4142   84.6006   11.5564 S.3     1  UNL1       -0.0874
      9 C          63.0417   83.3107   12.2254 C.ar    1  UNL1        0.0278
     10 C          63.0137   82.0365   11.4345 C.ar    1  UNL1        0.0062
     11 C          62.6413   80.7466   12.1035 C.ar    1  UNL1        0.0005
     12 C          62.2969   80.7309   13.5633 C.ar    1  UNL1       -0.0002
     13 C          62.3249   82.0052   14.3542 C.ar    1  UNL1       -0.0014
     14 C          62.6973   83.2950   13.6853 C.ar    1  UNL1        0.0130
     15 C          62.7253   84.5693   14.4761 C.3     1  UNL1        0.1641
     16 O          61.5762   84.9201   15.3741 O.3     1  UNL1       -0.3772
     17 H          60.7837   85.0793   14.8379 H       1  UNL1        0.2109
     18 C          62.4022   88.8420   12.0467 C.2     1  UNL1        0.2252
     19 O          63.5380   88.0451   12.6167 O.2     1  UNL1       -0.2750
     20 N          61.2493   88.1415   11.3908 N.am    1  UNL1       -0.3003
     21 H          60.5038   88.6645   11.0167 H       1  UNL1        0.1497
     22 C          62.4193   90.3395   12.1324 C.3     1  UNL1        0.1154
     23 C          62.9274   90.8446   10.2572 C.3     1  UNL1        0.0335
     24 C          63.5825   91.1090   11.5804 C.3     1  UNL1        0.1377
     25 C          63.9944   91.2127   13.0190 C.3     1  UNL1        0.0613
     26 C          65.2753   91.9910   13.0795 C.3     1  UNL1        0.1290
     27 C          66.5474   92.7801   12.9836 C.3     1  UNL1        0.0305
     28 C          67.3139   93.1211   14.2269 C.3     1  UNL1        0.0025
     29 C          66.8085   92.6730   15.5662 C.3     1  UNL1        0.0002
     30 C          65.5365   91.8840   15.6622 C.3     1  UNL1        0.0025
     31 C          64.7699   91.5429   14.4188 C.3     1  UNL1        0.0305
     32 O          65.6550   92.3684   11.6783 O.3     1  UNL1       -0.2256
     33 O          64.6087   91.8233   10.7517 O.3     1  UNL1       -0.2251
@<TRIPOS>BOND
     1    23    24    1
     2    24    22    1
     3    22    18    1
     4    18    19    2
     5    18    20   am
     6    20     1    1
     7     1     2    1
     8     2     3   ar
     9     3     4   ar
    10     4     5   ar
    11     5     6   ar
    12     6     7   ar
    13     7     8    1
    14     8     9    1
    15     9    10   ar
    16    10    11   ar
    17    11    12   ar
    18    12    13   ar
    19    13    14   ar
    20    14    15    1
    21    15    16    1
    22    24    25    1
    23    25    26    1
    24    26    27    1
    25    27    28    1
    26    28    29    1
    27    29    30    1
    28    30    31    1
    29    26    32    1
    30    32    33    1
    31    33    24    1
    32     7     2   ar
    33    14     9   ar
    34    31    26    1
    35    20    21    1
    36    16    17    1
@<TRIPOS>MOLECULE
*****
 33 36 0 0 0
SMALL
GASTEIGER

@<TRIPOS>ATOM
      1 C          64.2494   91.6962   12.6476 C.3     1  UNL1        0.1168
      2 C          65.3963   91.9993   13.5656 C.ar    1  UNL1        0.0034
      3 C          65.2464   91.7987   15.0445 C.ar    1  UNL1       -0.0021
      4 C          66.3933   92.1018   15.9625 C.ar    1  UNL1       -0.0002
      5 C          67.6901   92.6056   15.4016 C.ar    1  UNL1        0.0005
      6 C          67.8400   92.8062   13.9227 C.ar    1  UNL1        0.0062
      7 C          66.6930   92.5031   13.0046 C.ar    1  UNL1        0.0271
      8 S          66.8429   92.7037   11.5257 S.3     1  UNL1       -0.0874
      9 C          66.7979   94.0873   10.9481 C.ar    1  UNL1        0.0278
     10 C          66.0446   95.1724   11.6588 C.ar    1  UNL1        0.0062
     11 C          65.9996   96.5561   11.0812 C.ar    1  UNL1        0.0005
     12 C          66.7078   96.8545    9.7930 C.ar    1  UNL1       -0.0002
     13 C          67.4610   95.7693    9.0824 C.ar    1  UNL1       -0.0014
     14 C          67.5061   94.3857    9.6599 C.ar    1  UNL1        0.0130
     15 C          68.2593   93.3006    8.9493 C.3     1  UNL1        0.1641
     16 O          69.5298   92.7611    9.5366 O.3     1  UNL1       -0.3772
     17 H          70.2068   93.4558    9.5360 H       1  UNL1        0.2109
     18 C          62.8610   89.8153   11.5143 C.2     1  UNL1        0.2252
     19 O          62.8493   90.5956   10.2334 O.2     1  UNL1       -0.2750
     20 N          63.5610   90.3656   12.7215 N.am    1  UNL1       -0.3003
     21 H          63.5687   89.8534   13.5622 H       1  UNL1        0.1497
     22 C          62.1726   88.4845   11.5882 C.3     1  UNL1        0.1154
     23 C          60.2951   89.1936   11.6350 C.3     1  UNL1        0.0335
     24 C          60.9747   88.2111   10.7279 C.3     1  UNL1        0.1377
     25 C          61.9047   87.2858   10.0006 C.3     1  UNL1        0.0613
     26 C          61.1395   86.6458    8.8803 C.3     1  UNL1        0.1290
     27 C          60.2503   86.0893    7.8081 C.3     1  UNL1        0.0305
     28 C          60.7927   85.0943    6.8255 C.3     1  UNL1        0.0025
     29 C          62.2244   84.6558    6.9150 C.3     1  UNL1        0.0002
     30 C          63.1136   85.2122    7.9872 C.3     1  UNL1        0.0025
     31 C          62.5711   86.2073    8.9698 C.3     1  UNL1        0.0305
     32 O          59.7366   87.1756    8.9152 O.3     1  UNL1       -0.2256
     33 O          59.6347   88.1430   10.0572 O.3     1  UNL1       -0.2251
@<TRIPOS>BOND
     1    23    24    1
     2    24    22    1
     3    22    18    1
     4    18    19    2
     5    18    20   am
     6    20     1    1
     7     1     2    1
     8     2     3   ar
     9     3     4   ar
    10     4     5   ar
    11     5     6   ar
    12     6     7   ar
    13     7     8    1
    14     8     9    1
    15     9    10   ar
    16    10    11   ar
    17    11    12   ar
    18    12    13   ar
    19    13    14   ar
    20    14    15    1
    21    15    16    1
    22    24    25    1
    23    25    26    1
    24    26    27    1
    25    27    28    1
    26    28    29    1
    27    29    30    1
    28    30    31    1
    29    26    32    1
    30    32    33    1
    31    33    24    1
    32     7     2   ar
    33    14     9   ar
    34    31    26    1
    35    20    21    1
    36    16    17    1
@<TRIPOS>MOLECULE
*****
 33 36 0 0 0
SMALL
GASTEIGER

@<TRIPOS>ATOM
      1 C          63.1012   90.5891   11.6750 C.3     1  UNL1        0.1168
      2 C          64.1317   91.1075   12.6338 C.ar    1  UNL1        0.0034
      3 C          64.1098   90.6685   14.0680 C.ar    1  UNL1       -0.0021
      4 C          65.1403   91.1869   15.0268 C.ar    1  UNL1       -0.0002
      5 C          66.1927   92.1443   14.5514 C.ar    1  UNL1        0.0005
      6 C          66.2145   92.5833   13.1174 C.ar    1  UNL1        0.0062
      7 C          65.1840   92.0649   12.1585 C.ar    1  UNL1        0.0271
      8 S          65.2059   92.5039   10.7244 S.3     1  UNL1       -0.0874
      9 C          65.9505   93.7454   10.3313 C.ar    1  UNL1        0.0278
     10 C          65.3527   95.0947   10.5992 C.ar    1  UNL1        0.0062
     11 C          66.0973   96.3362   10.2061 C.ar    1  UNL1        0.0005
     12 C          67.4395   96.2282    9.5451 C.ar    1  UNL1       -0.0002
     13 C          68.0372   94.8788    9.2773 C.ar    1  UNL1       -0.0014
     14 C          67.2927   93.6373    9.6704 C.ar    1  UNL1        0.0130
     15 C          67.8903   92.2879    9.4025 C.3     1  UNL1        0.1641
     16 O          68.7785   92.0841    8.2110 O.3     1  UNL1       -0.3772
     17 H          68.2604   92.1963    7.3986 H       1  UNL1        0.2109
     18 C          61.5302   88.6638   10.9167 C.2     1  UNL1        0.2252
     19 O          60.7150   89.6414   10.1233 O.2     1  UNL1       -0.2750
     20 N          62.7233   89.1376   11.6926 N.am    1  UNL1       -0.3003
     21 H          63.2584   88.4959   12.2134 H       1  UNL1        0.1497
     22 C          61.1523   87.2122   10.9343 C.3     1  UNL1        0.1154
     23 C          61.5904   87.0382    8.9830 C.3     1  UNL1        0.0335
     24 C          61.9753   86.2138   10.1755 C.3     1  UNL1        0.1377
     25 C          62.1881   85.5981   11.5267 C.3     1  UNL1        0.0613
     26 C          63.0623   84.3914   11.3537 C.3     1  UNL1        0.1290
     27 C          63.9380   83.2181   11.0273 C.3     1  UNL1        0.0305
     28 C          64.4030   82.3023   12.1205 C.3     1  UNL1        0.0025
     29 C          63.9925   82.5599   13.5400 C.3     1  UNL1        0.0002
     30 C          63.1169   83.7332   13.8665 C.3     1  UNL1        0.0025
     31 C          62.6518   84.6490   12.7733 C.3     1  UNL1        0.0305
     32 O          63.3897   84.2614    9.8957 O.3     1  UNL1       -0.2256
     33 O          62.7179   85.3877    9.1675 O.3     1  UNL1       -0.2251
@<TRIPOS>BOND
     1    23    24    1
     2    24    22    1
     3    22    18    1
     4    18    19    2
     5    18    20   am
     6    20     1    1
     7     1     2    1
     8     2     3   ar
     9     3     4   ar
    10     4     5   ar
    11     5     6   ar
    12     6     7   ar
    13     7     8    1
    14     8     9    1
    15     9    10   ar
    16    10    11   ar
    17    11    12   ar
    18    12    13   ar
    19    13    14   ar
    20    14    15    1
    21    15    16    1
    22    24    25    1
    23    25    26    1
    24    26    27    1
    25    27    28    1
    26    28    29    1
    27    29    30    1
    28    30    31    1
    29    26    32    1
    30    32    33    1
    31    33    24    1
    32     7     2   ar
    33    14     9   ar
    34    31    26    1
    35    20    21    1
    36    16    17    1
@<TRIPOS>MOLECULE
*****
 33 36 0 0 0
SMALL
GASTEIGER

@<TRIPOS>ATOM
      1 C          63.0223   91.1964   10.8414 C.3     1  UNL1        0.1168
      2 C          64.3045   91.5803   11.5185 C.ar    1  UNL1        0.0034
      3 C          65.4142   92.2041   10.7251 C.ar    1  UNL1       -0.0021
      4 C          66.6964   92.5880   11.4022 C.ar    1  UNL1       -0.0002
      5 C          66.8689   92.3482   12.8728 C.ar    1  UNL1        0.0005
      6 C          65.7593   91.7245   13.6662 C.ar    1  UNL1        0.0062
      7 C          64.4770   91.3405   12.9891 C.ar    1  UNL1        0.0271
      8 S          63.3674   90.7168   13.7825 S.3     1  UNL1       -0.0874
      9 C          63.5849   89.4017   14.4707 C.ar    1  UNL1        0.0278
     10 C          64.0664   88.2163   13.6880 C.ar    1  UNL1        0.0062
     11 C          64.2838   86.9013   14.3762 C.ar    1  UNL1        0.0005
     12 C          64.0196   86.7718   15.8471 C.ar    1  UNL1       -0.0002
     13 C          63.5380   87.9573   16.6298 C.ar    1  UNL1       -0.0014
     14 C          63.3206   89.2723   15.9416 C.ar    1  UNL1        0.0130
     15 C          62.8391   90.4578   16.7243 C.3     1  UNL1        0.1641
     16 O          63.6943   91.6857   16.8281 O.3     1  UNL1       -0.3772
     17 H          64.4995   91.4777   17.3274 H       1  UNL1        0.2109
     18 C          61.2287   89.3241   11.0065 C.2     1  UNL1        0.2252
     19 O          60.2018   90.3427   11.4035 O.2     1  UNL1       -0.2750
     20 N          62.6390   89.7509   10.7254 N.am    1  UNL1       -0.3003
     21 H          63.3130   89.0822   10.4648 H       1  UNL1        0.1497
     22 C          60.8454   87.8784   10.8905 C.3     1  UNL1        0.1154
     23 C          60.6519   88.0527    8.9001 C.3     1  UNL1        0.0335
     24 C          61.3715   87.0519    9.7548 C.3     1  UNL1        0.1377
     25 C          61.9810   86.2239   10.8470 C.3     1  UNL1        0.0613
     26 C          62.7335   85.0946   10.2076 C.3     1  UNL1        0.1290
     27 C          63.4404   84.0244    9.4299 C.3     1  UNL1        0.0305
     28 C          64.2034   82.9532   10.1512 C.3     1  UNL1        0.0025
     29 C          64.2595   82.9522   11.6502 C.3     1  UNL1        0.0002
     30 C          63.5526   84.0225   12.4278 C.3     1  UNL1        0.0025
     31 C          62.7897   85.0937   11.7065 C.3     1  UNL1        0.0305
     32 O          62.5890   85.2248    8.7202 O.3     1  UNL1       -0.2256
     33 O          61.7472   86.4345    8.4404 O.3     1  UNL1       -0.2251
@<TRIPOS>BOND
     1    23    24    1
     2    24    22    1
     3    22    18    1
     4    18    19    2
     5    18    20   am
     6    20     1    1
     7     1     2    1
     8     2     3   ar
     9     3     4   ar
    10     4     5   ar
    11     5     6   ar
    12     6     7   ar
    13     7     8    1
    14     8     9    1
    15     9    10   ar
    16    10    11   ar
    17    11    12   ar
    18    12    13   ar
    19    13    14   ar
    20    14    15    1
    21    15    16    1
    22    24    25    1
    23    25    26    1
    24    26    27    1
    25    27    28    1
    26    28    29    1
    27    29    30    1
    28    30    31    1
    29    26    32    1
    30    32    33    1
    31    33    24    1
    32     7     2   ar
    33    14     9   ar
    34    31    26    1
    35    20    21    1
    36    16    17    1
@<TRIPOS>MOLECULE
*****
 33 36 0 0 0
SMALL
GASTEIGER

@<TRIPOS>ATOM
      1 C          63.4215   91.1356   12.8845 C.3     1  UNL1        0.1168
      2 C          64.8130   91.3452   13.4039 C.ar    1  UNL1        0.0034
      3 C          65.2420   90.6914   14.6839 C.ar    1  UNL1       -0.0021
      4 C          66.6335   90.9009   15.2034 C.ar    1  UNL1       -0.0002
      5 C          67.5959   91.7642   14.4428 C.ar    1  UNL1        0.0005
      6 C          67.1669   92.4179   13.1628 C.ar    1  UNL1        0.0062
      7 C          65.7754   92.2084   12.6433 C.ar    1  UNL1        0.0271
      8 S          65.3463   92.8621   11.3633 S.3     1  UNL1       -0.0874
      9 C          66.3756   93.3115   10.3689 C.ar    1  UNL1        0.0278
     10 C          67.3795   92.3333    9.8348 C.ar    1  UNL1        0.0062
     11 C          68.4088   92.7827    8.8404 C.ar    1  UNL1        0.0005
     12 C          68.4340   94.2101    8.3801 C.ar    1  UNL1       -0.0002
     13 C          67.4300   95.1882    8.9142 C.ar    1  UNL1       -0.0014
     14 C          66.4008   94.7389    9.9086 C.ar    1  UNL1        0.0130
     15 C          65.3968   95.7170   10.4427 C.3     1  UNL1        0.1641
     16 O          65.6548   96.4232   11.7407 O.3     1  UNL1       -0.3772
     17 H          65.6545   95.7783   12.4653 H       1  UNL1        0.2109
     18 C          62.5044   89.1776   11.4440 C.2     1  UNL1        0.2252
     19 O          62.7124   89.9933   10.2026 O.2     1  UNL1       -0.2750
     20 N          62.8590   89.7487   12.7850 N.am    1  UNL1       -0.3003
     21 H          62.7225   89.2132   13.5998 H       1  UNL1        0.1497
     22 C          61.9419   87.7905   11.3445 C.3     1  UNL1        0.1154
     23 C          60.0208   88.3728   11.3555 C.3     1  UNL1        0.0335
     24 C          60.8024   87.5086   10.4108 C.3     1  UNL1        0.1377
     25 C          61.8221   86.7033    9.6614 C.3     1  UNL1        0.0613
     26 C          61.1494   86.1043    8.4618 C.3     1  UNL1        0.1290
     27 C          60.3454   85.5769    7.3106 C.3     1  UNL1        0.0305
     28 C          60.9943   84.6973    6.2834 C.3     1  UNL1        0.0025
     29 C          62.4471   84.3452    6.4074 C.3     1  UNL1        0.0002
     30 C          63.2510   84.8727    7.5586 C.3     1  UNL1        0.0025
     31 C          62.6022   85.7522    8.5858 C.3     1  UNL1        0.0305
     32 O          59.7139   86.5394    8.4700 O.3     1  UNL1       -0.2256
     33 O          59.4994   87.4074    9.6745 O.3     1  UNL1       -0.2251
@<TRIPOS>BOND
     1    23    24    1
     2    24    22    1
     3    22    18    1
     4    18    19    2
     5    18    20   am
     6    20     1    1
     7     1     2    1
     8     2     3   ar
     9     3     4   ar
    10     4     5   ar
    11     5     6   ar
    12     6     7   ar
    13     7     8    1
    14     8     9    1
    15     9    10   ar
    16    10    11   ar
    17    11    12   ar
    18    12    13   ar
    19    13    14   ar
    20    14    15    1
    21    15    16    1
    22    24    25    1
    23    25    26    1
    24    26    27    1
    25    27    28    1
    26    28    29    1
    27    29    30    1
    28    30    31    1
    29    26    32    1
    30    32    33    1
    31    33    24    1
    32     7     2   ar
    33    14     9   ar
    34    31    26    1
    35    20    21    1
    36    16    17    1
@<TRIPOS>MOLECULE
*****
 33 36 0 0 0
SMALL
GASTEIGER

@<TRIPOS>ATOM
      1 C          62.9002   85.4054   10.0591 C.3     1  UNL1        0.1168
      2 C          61.7040   86.1436    9.5357 C.ar    1  UNL1        0.0034
      3 C          60.9467   85.6055    8.3580 C.ar    1  UNL1       -0.0021
      4 C          59.7505   86.3438    7.8346 C.ar    1  UNL1       -0.0002
      5 C          59.3115   87.6201    8.4890 C.ar    1  UNL1        0.0005
      6 C          60.0687   88.1583    9.6666 C.ar    1  UNL1        0.0062
      7 C          61.2650   87.4200   10.1901 C.ar    1  UNL1        0.0271
      8 S          62.0222   87.9581   11.3677 S.3     1  UNL1       -0.0874
      9 C          62.7020   89.2922   11.2763 C.ar    1  UNL1        0.0278
     10 C          62.6838   90.0563    9.9858 C.ar    1  UNL1        0.0062
     11 C          63.3636   91.3904    9.8944 C.ar    1  UNL1        0.0005
     12 C          64.0616   91.9601   11.0936 C.ar    1  UNL1       -0.0002
     13 C          64.0798   91.1959   12.3842 C.ar    1  UNL1       -0.0014
     14 C          63.4000   89.8620   12.4756 C.ar    1  UNL1        0.0130
     15 C          63.4182   89.0978   13.7662 C.3     1  UNL1        0.1641
     16 O          62.6899   89.6313   14.9641 O.3     1  UNL1       -0.3772
     17 H          63.1097   90.4551   15.2573 H       1  UNL1        0.2109
     18 C          63.7452   83.1857   11.1122 C.2     1  UNL1        0.2252
     19 O          64.9520   83.2229   10.2224 O.2     1  UNL1       -0.2750
     20 N          62.7192   84.2770   11.0307 N.am    1  UNL1       -0.3003
     21 H          61.9270   84.2526   11.6147 H       1  UNL1        0.1497
     22 C          63.5641   82.0572   12.0838 C.3     1  UNL1        0.1154
     23 C          61.9919   80.9990   12.7457 C.3     1  UNL1        0.0335
     24 C          62.6681   82.2291   13.2744 C.3     1  UNL1        0.1377
     25 C          63.5316   83.4233   13.5542 C.3     1  UNL1        0.0613
     26 C          63.0279   84.0763   14.8072 C.3     1  UNL1        0.1290
     27 C          62.4150   84.6165   16.0652 C.3     1  UNL1        0.0305
     28 C          62.9859   85.8444   16.7102 C.3     1  UNL1        0.0025
     29 C          64.1697   86.5322   16.0974 C.3     1  UNL1        0.0002
     30 C          64.7826   85.9920   14.8394 C.3     1  UNL1        0.0025
     31 C          64.2117   84.7640   14.1944 C.3     1  UNL1        0.0305
     32 O          61.8531   83.2856   15.3019 O.3     1  UNL1       -0.2256
     33 O          61.6307   82.1439   14.3545 O.3     1  UNL1       -0.2251
@<TRIPOS>BOND
     1    23    24    1
     2    24    22    1
     3    22    18    1
     4    18    19    2
     5    18    20   am
     6    20     1    1
     7     1     2    1
     8     2     3   ar
     9     3     4   ar
    10     4     5   ar
    11     5     6   ar
    12     6     7   ar
    13     7     8    1
    14     8     9    1
    15     9    10   ar
    16    10    11   ar
    17    11    12   ar
    18    12    13   ar
    19    13    14   ar
    20    14    15    1
    21    15    16    1
    22    24    25    1
    23    25    26    1
    24    26    27    1
    25    27    28    1
    26    28    29    1
    27    29    30    1
    28    30    31    1
    29    26    32    1
    30    32    33    1
    31    33    24    1
    32     7     2   ar
    33    14     9   ar
    34    31    26    1
    35    20    21    1
    36    16    17    1
@<TRIPOS>MOLECULE
*****
 33 36 0 0 0
SMALL
GASTEIGER

@<TRIPOS>ATOM
      1 C          62.3508   86.5268   11.6968 C.3     1  UNL1        0.1168
      2 C          62.3472   85.9369   10.3177 C.ar    1  UNL1        0.0034
      3 C          61.5491   86.5863    9.2262 C.ar    1  UNL1       -0.0021
      4 C          61.5455   85.9964    7.8471 C.ar    1  UNL1       -0.0002
      5 C          62.3400   84.7571    7.5594 C.ar    1  UNL1        0.0005
      6 C          63.1381   84.1077    8.6508 C.ar    1  UNL1        0.0062
      7 C          63.1418   84.6976   10.0300 C.ar    1  UNL1        0.0271
      8 S          63.9399   84.0482   11.1214 S.3     1  UNL1       -0.0874
      9 C          63.2646   83.1387   12.1048 C.ar    1  UNL1        0.0278
     10 C          62.8073   83.6737   13.4293 C.ar    1  UNL1        0.0062
     11 C          62.1320   82.7643   14.4128 C.ar    1  UNL1        0.0005
     12 C          61.9143   81.3199   14.0717 C.ar    1  UNL1       -0.0002
     13 C          62.3717   80.7850   12.7471 C.ar    1  UNL1       -0.0014
     14 C          63.0469   81.6944   11.7637 C.ar    1  UNL1        0.0130
     15 C          63.5043   81.1594   10.4391 C.3     1  UNL1        0.1641
     16 O          62.8174   79.9721    9.8320 O.3     1  UNL1       -0.3772
     17 H          62.9731   79.1907   10.3852 H       1  UNL1        0.2109
     18 C          61.6067   89.0093   11.8799 C.2     1  UNL1        0.2252
     19 O          60.1797   88.5969   11.6716 O.2     1  UNL1       -0.2750
     20 N          62.6924   87.9742   11.8925 N.am    1  UNL1       -0.3003
     21 H          63.6290   88.2448   12.0292 H       1  UNL1        0.1497
     22 C          61.9483   90.4568   12.0756 C.3     1  UNL1        0.1154
     23 C          62.4047   90.8312   10.1570 C.3     1  UNL1        0.0335
     24 C          63.1733   91.0322   11.4292 C.3     1  UNL1        0.1377
     25 C          63.6859   91.1130   12.8366 C.3     1  UNL1        0.0613
     26 C          65.0673   91.6964   12.7941 C.3     1  UNL1        0.1290
     27 C          66.4315   92.2875   12.5957 C.3     1  UNL1        0.0305
     28 C          67.3163   92.5457   13.7791 C.3     1  UNL1        0.0025
     29 C          66.8369   92.2129   15.1609 C.3     1  UNL1        0.0002
     30 C          65.4726   91.6218   15.3593 C.3     1  UNL1        0.0025
     31 C          64.5878   91.3635   14.1759 C.3     1  UNL1        0.0305
     32 O          65.4083   91.9762   11.3604 O.3     1  UNL1       -0.2256
     33 O          64.2378   91.5657   10.5169 O.3     1  UNL1       -0.2251
@<TRIPOS>BOND
     1    23    24    1
     2    24    22    1
     3    22    18    1
     4    18    19    2
     5    18    20   am
     6    20     1    1
     7     1     2    1
     8     2     3   ar
     9     3     4   ar
    10     4     5   ar
    11     5     6   ar
    12     6     7   ar
    13     7     8    1
    14     8     9    1
    15     9    10   ar
    16    10    11   ar
    17    11    12   ar
    18    12    13   ar
    19    13    14   ar
    20    14    15    1
    21    15    16    1
    22    24    25    1
    23    25    26    1
    24    26    27    1
    25    27    28    1
    26    28    29    1
    27    29    30    1
    28    30    31    1
    29    26    32    1
    30    32    33    1
    31    33    24    1
    32     7     2   ar
    33    14     9   ar
    34    31    26    1
    35    20    21    1
    36    16    17    1
