@<TRIPOS>MOLECULE
*****
 35 39 0 0 0
SMALL
GASTEIGER

@<TRIPOS>ATOM
      1 O          63.4075   87.5940   12.1639 O.2     1  UNL1       -0.2522
      2 C          63.8681   87.0484   13.4831 C.2     1  UNL1        0.3082
      3 N          64.5288   87.9539   14.4798 N.am    1  UNL1       -0.2656
      4 N          63.6679   85.5971   13.8055 N.am    1  UNL1       -0.2576
      5 C          64.1285   85.0515   15.1246 C.3     1  UNL1        0.1018
      6 C          63.9284   83.6003   15.4471 C.3     1  UNL1        0.0671
      7 C          63.2676   82.6947   14.4504 C.ar    1  UNL1        0.0586
      8 N          63.0675   81.2435   14.7728 N.ar    1  UNL1       -0.2483
      9 C          62.4068   80.3380   13.7761 C.ar    1  UNL1        0.0984
     10 C          61.9463   80.8836   12.4570 C.ar    1  UNL1        0.0204
     11 C          62.1464   82.3348   12.1345 C.ar    1  UNL1        0.0004
     12 C          62.8071   83.2403   13.1312 C.ar    1  UNL1        0.0136
     13 C          63.0072   84.6916   12.8088 C.3     1  UNL1        0.1231
     14 H          64.8310   87.5958   15.3456 H       1  UNL1        0.1565
     15 C          62.5467   85.2372   11.4896 C.ar    1  UNL1        0.0001
     16 C          63.3060   84.9125   10.2374 C.ar    1  UNL1       -0.0000
     17 C          62.8454   85.4581    8.9182 C.ar    1  UNL1        0.0294
     18 C          61.6256   86.3285    8.8513 C.ar    1  UNL1        0.1401
     19 F          61.1650   86.8741    7.5322 F       1  UNL1       -0.2042
     20 C          60.8663   86.6532   10.1035 C.ar    1  UNL1        0.0294
     21 C          61.3269   86.1076   11.4227 C.ar    1  UNL1       -0.0000
     22 C          64.7289   89.4051   14.1573 C.ar    1  UNL1        0.0906
     23 C          63.7254   90.1306   13.3108 C.ar    1  UNL1        0.1199
     24 N          63.9255   91.5818   12.9884 N.ar    1  UNL1       -0.1911
     25 C          65.1292   92.3075   13.5124 C.ar    1  UNL1        0.3247
     26 N          66.1327   91.5819   14.3589 N.ar    1  UNL1       -0.1911
     27 C          65.9326   90.1308   14.6814 C.ar    1  UNL1        0.1199
     28 O          65.3293   93.7586   13.1900 O.3     1  UNL1       -0.4223
     29 C          66.0059   94.1565   11.9117 C.ar    1  UNL1        0.1488
     30 C          66.5860   93.1062   11.0117 C.ar    1  UNL1        0.0399
     31 C          67.2626   93.5041    9.7334 C.ar    1  UNL1        0.0328
     32 C          67.3590   94.9524    9.3552 C.ar    1  UNL1        0.1403
     33 F          68.0356   95.3503    8.0769 F       1  UNL1       -0.2042
     34 C          66.7789   96.0028   10.2552 C.ar    1  UNL1        0.0328
     35 C          66.1023   95.6049   11.5335 C.ar    1  UNL1        0.0399
@<TRIPOS>BOND
     1     1     2    2
     2     2     3   am
     3     3    22    1
     4    22    23   ar
     5    23    24   ar
     6    24    25   ar
     7    25    28    1
     8    28    29    1
     9    29    30   ar
    10    30    31   ar
    11    31    32   ar
    12    32    33    1
    13    32    34   ar
    14    34    35   ar
    15    25    26   ar
    16    26    27   ar
    17     2     4   am
    18     4     5    1
    19     5     6    1
    20     6     7    1
    21     7     8   ar
    22     8     9   ar
    23     9    10   ar
    24    10    11   ar
    25    11    12   ar
    26    12    13    1
    27    13    15    1
    28    15    16   ar
    29    16    17   ar
    30    17    18   ar
    31    18    19    1
    32    18    20   ar
    33    20    21   ar
    34    27    22   ar
    35    13     4    1
    36    21    15   ar
    37    35    29   ar
    38    12     7   ar
    39     3    14    1
@<TRIPOS>MOLECULE
*****
 35 39 0 0 0
SMALL
GASTEIGER

@<TRIPOS>ATOM
      1 O          64.2644   91.6202   10.7516 O.2     1  UNL1       -0.2522
      2 C          63.8388   91.1327   12.1048 C.2     1  UNL1        0.3082
      3 N          62.5876   90.3182   12.2492 N.am    1  UNL1       -0.2656
      4 N          64.6645   91.4598   13.3137 N.am    1  UNL1       -0.2576
      5 C          64.2389   90.9724   14.6669 C.3     1  UNL1        0.1018
      6 C          65.0645   91.2994   15.8757 C.3     1  UNL1        0.0671
      7 C          66.3158   92.1140   15.7314 C.ar    1  UNL1        0.0586
      8 N          67.1414   92.4411   16.9402 N.ar    1  UNL1       -0.2483
      9 C          68.3926   93.2557   16.7958 C.ar    1  UNL1        0.0984
     10 C          68.8182   93.7432   15.4426 C.ar    1  UNL1        0.0204
     11 C          67.9926   93.4161   14.2338 C.ar    1  UNL1        0.0004
     12 C          66.7414   92.6015   14.3781 C.ar    1  UNL1        0.0136
     13 C          65.9157   92.2744   13.1693 C.3     1  UNL1        0.1231
     14 H          62.3082   89.9982   13.1373 H       1  UNL1        0.1565
     15 C          66.3413   92.7619   11.8160 C.ar    1  UNL1        0.0001
     16 C          65.7652   94.0306   11.2605 C.ar    1  UNL1       -0.0000
     17 C          66.1908   94.5181    9.9073 C.ar    1  UNL1        0.0294
     18 C          67.1925   93.7368    9.1096 C.ar    1  UNL1        0.1401
     19 F          67.6181   94.2243    7.7564 F       1  UNL1       -0.2042
     20 C          67.7686   92.4682    9.6651 C.ar    1  UNL1        0.0294
     21 C          67.3430   91.9807   11.0183 C.ar    1  UNL1       -0.0000
     22 C          61.7620   89.9911   11.0403 C.ar    1  UNL1        0.0906
     23 C          62.1673   88.8636   10.1379 C.ar    1  UNL1        0.1199
     24 N          61.3416   88.5365    8.9290 N.ar    1  UNL1       -0.1911
     25 C          60.1107   89.3369    8.6226 C.ar    1  UNL1        0.3247
     26 N          59.7053   90.4645    9.5250 N.ar    1  UNL1       -0.1911
     27 C          60.5309   90.7915   10.7339 C.ar    1  UNL1        0.1199
     28 O          59.2850   89.0099    7.4138 O.3     1  UNL1       -0.4223
     29 C          59.1998   89.9853    6.2774 C.ar    1  UNL1        0.1488
     30 C          60.4469   90.4177    5.5650 C.ar    1  UNL1        0.0399
     31 C          60.3617   91.3932    4.4287 C.ar    1  UNL1        0.0328
     32 C          59.0293   91.9362    4.0047 C.ar    1  UNL1        0.1403
     33 F          58.9440   92.9116    2.8684 F       1  UNL1       -0.2042
     34 C          57.7820   91.5037    4.7171 C.ar    1  UNL1        0.0328
     35 C          57.8673   90.5283    5.8535 C.ar    1  UNL1        0.0399
@<TRIPOS>BOND
     1     1     2    2
     2     2     3   am
     3     3    22    1
     4    22    23   ar
     5    23    24   ar
     6    24    25   ar
     7    25    28    1
     8    28    29    1
     9    29    30   ar
    10    30    31   ar
    11    31    32   ar
    12    32    33    1
    13    32    34   ar
    14    34    35   ar
    15    25    26   ar
    16    26    27   ar
    17     2     4   am
    18     4     5    1
    19     5     6    1
    20     6     7    1
    21     7     8   ar
    22     8     9   ar
    23     9    10   ar
    24    10    11   ar
    25    11    12   ar
    26    12    13    1
    27    13    15    1
    28    15    16   ar
    29    16    17   ar
    30    17    18   ar
    31    18    19    1
    32    18    20   ar
    33    20    21   ar
    34    27    22   ar
    35    13     4    1
    36    21    15   ar
    37    35    29   ar
    38    12     7   ar
    39     3    14    1
@<TRIPOS>MOLECULE
*****
 35 39 0 0 0
SMALL
GASTEIGER

@<TRIPOS>ATOM
      1 O          59.2947   93.0144    0.9833 O.2     1  UNL1       -0.2522
      2 C          60.7343   93.3892    1.1759 C.2     1  UNL1        0.3082
      3 N          61.4498   92.9961    2.4342 N.am    1  UNL1       -0.2656
      4 N          61.4584   94.1573    0.1100 N.am    1  UNL1       -0.2576
      5 C          62.8980   94.5321    0.3026 C.3     1  UNL1        0.1018
      6 C          63.6221   95.3001   -0.7631 C.3     1  UNL1        0.0671
      7 C          62.9066   95.6934   -2.0215 C.ar    1  UNL1        0.0586
      8 N          63.6306   96.4614   -3.0872 N.ar    1  UNL1       -0.2483
      9 C          62.9151   96.8545   -4.3455 C.ar    1  UNL1        0.0984
     10 C          61.4756   96.4797   -4.5381 C.ar    1  UNL1        0.0204
     11 C          60.7515   95.7117   -3.4724 C.ar    1  UNL1        0.0004
     12 C          61.4670   95.3185   -2.2141 C.ar    1  UNL1        0.0136
     13 C          60.7429   94.5505   -1.1483 C.3     1  UNL1        0.1231
     14 H          62.3947   93.2421    2.5606 H       1  UNL1        0.1565
     15 C          59.3033   94.1756   -1.3409 C.ar    1  UNL1        0.0001
     16 C          58.9485   92.8747   -1.9980 C.ar    1  UNL1       -0.0000
     17 C          57.5089   92.4998   -2.1906 C.ar    1  UNL1        0.0294
     18 C          56.4241   93.4259   -1.7261 C.ar    1  UNL1        0.1401
     19 F          54.9846   93.0511   -1.9187 F       1  UNL1       -0.2042
     20 C          56.7790   94.7268   -1.0690 C.ar    1  UNL1        0.0294
     21 C          58.2186   95.1016   -0.8764 C.ar    1  UNL1       -0.0000
     22 C          60.7257   92.2281    3.4999 C.ar    1  UNL1        0.0906
     23 C          61.4412   91.1588    4.2711 C.ar    1  UNL1        0.1199
     24 N          60.7170   90.3907    5.3368 N.ar    1  UNL1       -0.1911
     25 C          59.2775   90.6920    5.6314 C.ar    1  UNL1        0.3247
     26 N          58.5620   91.7613    4.8602 N.ar    1  UNL1       -0.1911
     27 C          59.2861   92.5293    3.7945 C.ar    1  UNL1        0.1199
     28 O          58.5534   89.9240    6.6971 O.3     1  UNL1       -0.4223
     29 C          59.2799   88.8830    7.4961 C.ar    1  UNL1        0.1488
     30 C          60.1687   89.2945    8.6321 C.ar    1  UNL1        0.0399
     31 C          60.8952   88.2534    9.4311 C.ar    1  UNL1        0.0328
     32 C          60.7329   86.8009    9.0941 C.ar    1  UNL1        0.1403
     33 F          61.4594   85.7598    9.8931 F       1  UNL1       -0.2042
     34 C          59.8440   86.3893    7.9580 C.ar    1  UNL1        0.0328
     35 C          59.1175   87.4303    7.1590 C.ar    1  UNL1        0.0399
@<TRIPOS>BOND
     1     1     2    2
     2     2     3   am
     3     3    22    1
     4    22    23   ar
     5    23    24   ar
     6    24    25   ar
     7    25    28    1
     8    28    29    1
     9    29    30   ar
    10    30    31   ar
    11    31    32   ar
    12    32    33    1
    13    32    34   ar
    14    34    35   ar
    15    25    26   ar
    16    26    27   ar
    17     2     4   am
    18     4     5    1
    19     5     6    1
    20     6     7    1
    21     7     8   ar
    22     8     9   ar
    23     9    10   ar
    24    10    11   ar
    25    11    12   ar
    26    12    13    1
    27    13    15    1
    28    15    16   ar
    29    16    17   ar
    30    17    18   ar
    31    18    19    1
    32    18    20   ar
    33    20    21   ar
    34    27    22   ar
    35    13     4    1
    36    21    15   ar
    37    35    29   ar
    38    12     7   ar
    39     3    14    1
