@<TRIPOS>MOLECULE
*****
 26 28 0 0 0
SMALL
GASTEIGER

@<TRIPOS>ATOM
      1 C          63.2458   89.5802   16.6931 C.3     1  UNL1        0.0522
      2 C          63.5939   90.0966   15.3286 C.ar    1  UNL1        0.0625
      3 C          64.5370   91.2539   15.1827 C.ar    1  UNL1        0.0522
      4 C          64.8851   91.7704   13.8181 C.ar    1  UNL1        0.1482
      5 C          64.2901   91.1296   12.5994 C.ar    1  UNL1        0.0612
      6 C          63.3470   89.9724   12.7452 C.ar    1  UNL1        0.1374
      7 N          62.9989   89.4559   14.1098 N.ar    1  UNL1       -0.2449
      8 C          62.7520   89.3316   11.5265 C.2     1  UNL1        0.2684
      9 O          62.6767   90.0961   10.2381 O.2     1  UNL1       -0.2681
     10 N          62.2322   87.9263   11.5960 N.am    1  UNL1       -0.2646
     11 H          62.2815   87.4245   12.4416 H       1  UNL1        0.1566
     12 C          61.6371   87.2855   10.3773 C.ar    1  UNL1        0.1346
     13 C          62.4695   86.3703    9.5290 C.ar    1  UNL1        0.0368
     14 C          61.8744   85.7296    8.3103 C.ar    1  UNL1        0.0341
     15 C          60.4470   86.0040    7.9399 C.ar    1  UNL1        0.1593
     16 F          59.8519   85.3631    6.7211 F       1  UNL1       -0.2025
     17 C          59.6146   86.9191    8.7882 C.ar    1  UNL1        0.1298
     18 N          60.2097   87.5598   10.0069 N.ar    1  UNL1       -0.2267
     19 O          65.8283   92.9277   13.6724 O.3     1  UNL1       -0.4518
     20 C          66.3380   93.3134   12.3154 C.ar    1  UNL1        0.1666
     21 C          66.1518   94.7151   11.8148 C.ar    1  UNL1        0.1364
     22 N          66.6615   95.1009   10.4578 N.ar    1  UNL1       -0.2368
     23 C          67.3575   94.0848    9.6014 C.ar    1  UNL1        0.1286
     24 C          67.5437   92.6832   10.1020 C.ar    1  UNL1        0.1623
     25 F          68.2397   91.6671    9.2456 F       1  UNL1       -0.2024
     26 C          67.0340   92.2975   11.4590 C.ar    1  UNL1        0.0703
@<TRIPOS>BOND
     1     1     2    1
     2     2     3   ar
     3     3     4   ar
     4     4    19    1
     5    19    20    1
     6    20    21   ar
     7    21    22   ar
     8    22    23   ar
     9    23    24   ar
    10    24    25    1
    11    24    26   ar
    12     4     5   ar
    13     5     6   ar
    14     6     8    1
    15     8     9    2
    16     8    10   am
    17    10    12    1
    18    12    13   ar
    19    13    14   ar
    20    14    15   ar
    21    15    16    1
    22    15    17   ar
    23    17    18   ar
    24     6     7   ar
    25     7     2   ar
    26    26    20   ar
    27    18    12   ar
    28    10    11    1
@<TRIPOS>MOLECULE
*****
 26 28 0 0 0
SMALL
GASTEIGER

@<TRIPOS>ATOM
      1 C          62.4949   90.6778   10.1448 C.3     1  UNL1        0.0522
      2 C          62.9948   90.1693   11.4644 C.ar    1  UNL1        0.0625
      3 C          63.4747   91.1348   12.5072 C.ar    1  UNL1        0.0522
      4 C          63.9746   90.6263   13.8268 C.ar    1  UNL1        0.1482
      5 C          63.9946   89.1522   14.1037 C.ar    1  UNL1        0.0612
      6 C          63.5148   88.1867   13.0610 C.ar    1  UNL1        0.1374
      7 N          63.0149   88.6952   11.7413 N.ar    1  UNL1       -0.2449
      8 C          63.5348   86.7125   13.3378 C.2     1  UNL1        0.2684
      9 O          64.4565   86.1583   14.3834 O.2     1  UNL1       -0.2681
     10 N          62.6330   85.7928   12.5692 N.am    1  UNL1       -0.2646
     11 H          62.0281   86.1566   11.8830 H       1  UNL1        0.1566
     12 C          62.6530   84.3186   12.8460 C.ar    1  UNL1        0.1346
     13 C          62.9967   83.3542   11.7498 C.ar    1  UNL1        0.0368
     14 C          63.0167   81.8802   12.0267 C.ar    1  UNL1        0.0341
     15 C          62.6930   81.3705   13.3998 C.ar    1  UNL1        0.1593
     16 F          62.7130   79.8964   13.6767 F       1  UNL1       -0.2025
     17 C          62.3493   82.3349   14.4961 C.ar    1  UNL1        0.1298
     18 N          62.3293   83.8090   14.2192 N.ar    1  UNL1       -0.2267
     19 O          64.4545   91.5919   14.8696 O.3     1  UNL1       -0.4518
     20 C          65.9060   91.9648   14.9352 C.ar    1  UNL1        0.1666
     21 C          66.4362   92.7088   16.1250 C.ar    1  UNL1        0.1364
     22 N          67.8876   93.0817   16.1906 N.ar    1  UNL1       -0.2368
     23 C          68.8088   92.7105   15.0664 C.ar    1  UNL1        0.1286
     24 C          68.2786   91.9666   13.8767 C.ar    1  UNL1        0.1623
     25 F          69.1998   91.5955   12.7526 F       1  UNL1       -0.2024
     26 C          66.8272   91.5937   13.8111 C.ar    1  UNL1        0.0703
@<TRIPOS>BOND
     1     1     2    1
     2     2     3   ar
     3     3     4   ar
     4     4    19    1
     5    19    20    1
     6    20    21   ar
     7    21    22   ar
     8    22    23   ar
     9    23    24   ar
    10    24    25    1
    11    24    26   ar
    12     4     5   ar
    13     5     6   ar
    14     6     8    1
    15     8     9    2
    16     8    10   am
    17    10    12    1
    18    12    13   ar
    19    13    14   ar
    20    14    15   ar
    21    15    16    1
    22    15    17   ar
    23    17    18   ar
    24     6     7   ar
    25     7     2   ar
    26    26    20   ar
    27    18    12   ar
    28    10    11    1
@<TRIPOS>MOLECULE
*****
 26 28 0 0 0
SMALL
GASTEIGER

@<TRIPOS>ATOM
      1 C          62.3868   86.8525   18.3460 C.3     1  UNL1        0.0522
      2 C          63.1299   86.9274   17.0452 C.ar    1  UNL1        0.0625
      3 C          63.6909   85.6802   16.4290 C.ar    1  UNL1        0.0522
      4 C          64.4341   85.7550   15.1282 C.ar    1  UNL1        0.1482
      5 C          64.6163   87.0771   14.4436 C.ar    1  UNL1        0.0612
      6 C          64.0553   88.3244   15.0597 C.ar    1  UNL1        0.1374
      7 N          63.3122   88.2495   16.3605 N.ar    1  UNL1       -0.2449
      8 C          64.2375   89.6466   14.3751 C.2     1  UNL1        0.2684
      9 O          63.0832   90.2882   13.6638 O.2     1  UNL1       -0.2681
     10 N          65.5740   90.3271   14.4017 N.am    1  UNL1       -0.2646
     11 H          66.3316   89.9059   14.8685 H       1  UNL1        0.1566
     12 C          65.7562   91.6493   13.7170 C.ar    1  UNL1        0.1346
     13 C          65.3193   91.8228   12.2926 C.ar    1  UNL1        0.0368
     14 C          65.5015   93.1449   11.6080 C.ar    1  UNL1        0.0341
     15 C          66.1206   94.2935   12.3478 C.ar    1  UNL1        0.1593
     16 F          66.3028   95.6157   11.6632 F       1  UNL1       -0.2025
     17 C          66.5575   94.1200   13.7723 C.ar    1  UNL1        0.1298
     18 N          66.3753   92.7979   14.4568 N.ar    1  UNL1       -0.2267
     19 O          64.9950   84.5077   14.5121 O.3     1  UNL1       -0.4518
     20 C          64.0899   83.5577   13.7854 C.ar    1  UNL1        0.1666
     21 C          64.2406   83.3616   12.3059 C.ar    1  UNL1        0.1364
     22 N          63.3354   82.4115   11.5792 N.ar    1  UNL1       -0.2368
     23 C          62.2795   81.6576   12.3320 C.ar    1  UNL1        0.1286
     24 C          62.1288   81.8537   13.8115 C.ar    1  UNL1        0.1623
     25 F          61.0729   81.0997   14.5643 F       1  UNL1       -0.2024
     26 C          63.0340   82.8037   14.5381 C.ar    1  UNL1        0.0703
@<TRIPOS>BOND
     1     1     2    1
     2     2     3   ar
     3     3     4   ar
     4     4    19    1
     5    19    20    1
     6    20    21   ar
     7    21    22   ar
     8    22    23   ar
     9    23    24   ar
    10    24    25    1
    11    24    26   ar
    12     4     5   ar
    13     5     6   ar
    14     6     8    1
    15     8     9    2
    16     8    10   am
    17    10    12    1
    18    12    13   ar
    19    13    14   ar
    20    14    15   ar
    21    15    16    1
    22    15    17   ar
    23    17    18   ar
    24     6     7   ar
    25     7     2   ar
    26    26    20   ar
    27    18    12   ar
    28    10    11    1
@<TRIPOS>MOLECULE
*****
 26 28 0 0 0
SMALL
GASTEIGER

@<TRIPOS>ATOM
      1 C          59.0092   90.4805   11.5881 C.3     1  UNL1        0.0522
      2 C          60.2890   89.6983   11.6040 C.ar    1  UNL1        0.0625
      3 C          60.4100   88.4416   10.7941 C.ar    1  UNL1        0.0522
      4 C          61.6898   87.6594   10.8099 C.ar    1  UNL1        0.1482
      5 C          62.8486   88.1339   11.6357 C.ar    1  UNL1        0.0612
      6 C          62.7277   89.3907   12.4456 C.ar    1  UNL1        0.1374
      7 N          61.4478   90.1729   12.4297 N.ar    1  UNL1       -0.2449
      8 C          63.8865   89.8653   13.2714 C.2     1  UNL1        0.2684
      9 O          64.5231   88.9443   14.2696 O.2     1  UNL1       -0.2681
     10 N          64.4087   91.2608   13.0989 N.am    1  UNL1       -0.2646
     11 H          63.9909   91.8652   12.4437 H       1  UNL1        0.1566
     12 C          65.5676   91.7354   13.9247 C.ar    1  UNL1        0.1346
     13 C          66.9513   91.7348   13.3456 C.ar    1  UNL1        0.0368
     14 C          68.1100   92.2094   14.1714 C.ar    1  UNL1        0.0341
     15 C          67.8851   92.6845   15.5763 C.ar    1  UNL1        0.1593
     16 F          69.0440   93.1591   16.4021 F       1  UNL1       -0.2025
     17 C          66.5015   92.6851   16.1554 C.ar    1  UNL1        0.1298
     18 N          65.3427   92.2105   15.3296 N.ar    1  UNL1       -0.2267
     19 O          61.8107   86.4026   10.0000 O.3     1  UNL1       -0.4518
     20 C          62.5356   85.2154   10.5614 C.ar    1  UNL1        0.1666
     21 C          63.4257   84.3932    9.6773 C.ar    1  UNL1        0.1364
     22 N          64.1506   83.2060   10.2387 N.ar    1  UNL1       -0.2368
     23 C          63.9852   82.8411   11.6843 C.ar    1  UNL1        0.1286
     24 C          63.0951   83.6633   12.5683 C.ar    1  UNL1        0.1623
     25 F          62.9298   83.2983   14.0139 F       1  UNL1       -0.2024
     26 C          62.3703   84.8505   12.0069 C.ar    1  UNL1        0.0703
@<TRIPOS>BOND
     1     1     2    1
     2     2     3   ar
     3     3     4   ar
     4     4    19    1
     5    19    20    1
     6    20    21   ar
     7    21    22   ar
     8    22    23   ar
     9    23    24   ar
    10    24    25    1
    11    24    26   ar
    12     4     5   ar
    13     5     6   ar
    14     6     8    1
    15     8     9    2
    16     8    10   am
    17    10    12    1
    18    12    13   ar
    19    13    14   ar
    20    14    15   ar
    21    15    16    1
    22    15    17   ar
    23    17    18   ar
    24     6     7   ar
    25     7     2   ar
    26    26    20   ar
    27    18    12   ar
    28    10    11    1
@<TRIPOS>MOLECULE
*****
 26 28 0 0 0
SMALL
GASTEIGER

@<TRIPOS>ATOM
      1 C          60.1011   89.4121    8.1913 C.3     1  UNL1        0.0522
      2 C          60.8787   89.0096    9.4092 C.ar    1  UNL1        0.0625
      3 C          60.6932   87.6433    9.9999 C.ar    1  UNL1        0.0522
      4 C          61.4709   87.2408   11.2177 C.ar    1  UNL1        0.1482
      5 C          62.4341   88.2045   11.8449 C.ar    1  UNL1        0.0612
      6 C          62.6196   89.5707   11.2543 C.ar    1  UNL1        0.1374
      7 N          61.8420   89.9733   10.0364 N.ar    1  UNL1       -0.2449
      8 C          63.5829   90.5345   11.8815 C.2     1  UNL1        0.2684
      9 O          63.9793   91.7822   11.1492 O.2     1  UNL1       -0.2681
     10 N          64.1497   90.2507   13.2409 N.am    1  UNL1       -0.2646
     11 H          63.8895   89.4318   13.7216 H       1  UNL1        0.1566
     12 C          65.1129   91.2145   13.8681 C.ar    1  UNL1        0.1346
     13 C          66.2888   91.7168   13.0840 C.ar    1  UNL1        0.0368
     14 C          67.2520   92.6805   13.7113 C.ar    1  UNL1        0.0341
     15 C          67.0393   93.1419   15.1226 C.ar    1  UNL1        0.1593
     16 F          68.0025   94.1057   15.7498 F       1  UNL1       -0.2025
     17 C          65.8634   92.6396   15.9067 C.ar    1  UNL1        0.1298
     18 N          64.9002   91.6759   15.2795 N.ar    1  UNL1       -0.2267
     19 O          61.2853   85.8745   11.8084 O.3     1  UNL1       -0.4518
     20 C          62.4614   84.9554   11.9566 C.ar    1  UNL1        0.1666
     21 C          63.1220   84.7923   13.2934 C.ar    1  UNL1        0.1364
     22 N          64.2982   83.8732   13.4416 N.ar    1  UNL1       -0.2368
     23 C          64.8137   83.1173   12.2530 C.ar    1  UNL1        0.1286
     24 C          64.1531   83.2804   10.9162 C.ar    1  UNL1        0.1623
     25 F          64.6686   82.5244    9.7276 F       1  UNL1       -0.2024
     26 C          62.9770   84.1995   10.7680 C.ar    1  UNL1        0.0703
@<TRIPOS>BOND
     1     1     2    1
     2     2     3   ar
     3     3     4   ar
     4     4    19    1
     5    19    20    1
     6    20    21   ar
     7    21    22   ar
     8    22    23   ar
     9    23    24   ar
    10    24    25    1
    11    24    26   ar
    12     4     5   ar
    13     5     6   ar
    14     6     8    1
    15     8     9    2
    16     8    10   am
    17    10    12    1
    18    12    13   ar
    19    13    14   ar
    20    14    15   ar
    21    15    16    1
    22    15    17   ar
    23    17    18   ar
    24     6     7   ar
    25     7     2   ar
    26    26    20   ar
    27    18    12   ar
    28    10    11    1
@<TRIPOS>MOLECULE
*****
 26 28 0 0 0
SMALL
GASTEIGER

@<TRIPOS>ATOM
      1 C          59.6567   87.7563    8.1240 C.3     1  UNL1        0.0522
      2 C          60.6861   87.4132    9.1597 C.ar    1  UNL1        0.0625
      3 C          61.2076   86.0106    9.2629 C.ar    1  UNL1        0.0522
      4 C          62.2370   85.6675   10.2986 C.ar    1  UNL1        0.1482
      5 C          62.7449   86.7270   11.2311 C.ar    1  UNL1        0.0612
      6 C          62.2234   88.1296   11.1279 C.ar    1  UNL1        0.1374
      7 N          61.1940   88.4727   10.0922 N.ar    1  UNL1       -0.2449
      8 C          62.7313   89.1892   12.0603 C.2     1  UNL1        0.2684
      9 O          62.5055   90.6379   11.7436 O.2     1  UNL1       -0.2681
     10 N          63.4648   88.8000   13.3095 N.am    1  UNL1       -0.2646
     11 H          63.6130   87.8492   13.5174 H       1  UNL1        0.1566
     12 C          63.9727   89.8596   14.2420 C.ar    1  UNL1        0.1346
     13 C          65.2077   90.6362   13.8934 C.ar    1  UNL1        0.0368
     14 C          65.7155   91.6957   14.8259 C.ar    1  UNL1        0.0341
     15 C          64.9883   91.9786   16.1069 C.ar    1  UNL1        0.1593
     16 F          65.4961   93.0382   17.0394 F       1  UNL1       -0.2025
     17 C          63.7532   91.2021   16.4555 C.ar    1  UNL1        0.1298
     18 N          63.2454   90.1426   15.5230 N.ar    1  UNL1       -0.2267
     19 O          62.7586   84.2648   10.4018 O.3     1  UNL1       -0.4518
     20 C          62.6504   83.5180   11.6982 C.ar    1  UNL1        0.1666
     21 C          62.5713   84.2709   12.9932 C.ar    1  UNL1        0.1364
     22 N          62.4631   83.5240   14.2895 N.ar    1  UNL1       -0.2368
     23 C          62.4342   82.0243   14.2909 C.ar    1  UNL1        0.1286
     24 C          62.5133   81.2714   12.9959 C.ar    1  UNL1        0.1623
     25 F          62.4844   79.7717   12.9973 F       1  UNL1       -0.2024
     26 C          62.6215   82.0183   11.6996 C.ar    1  UNL1        0.0703
@<TRIPOS>BOND
     1     1     2    1
     2     2     3   ar
     3     3     4   ar
     4     4    19    1
     5    19    20    1
     6    20    21   ar
     7    21    22   ar
     8    22    23   ar
     9    23    24   ar
    10    24    25    1
    11    24    26   ar
    12     4     5   ar
    13     5     6   ar
    14     6     8    1
    15     8     9    2
    16     8    10   am
    17    10    12    1
    18    12    13   ar
    19    13    14   ar
    20    14    15   ar
    21    15    16    1
    22    15    17   ar
    23    17    18   ar
    24     6     7   ar
    25     7     2   ar
    26    26    20   ar
    27    18    12   ar
    28    10    11    1
@<TRIPOS>MOLECULE
*****
 26 28 0 0 0
SMALL
GASTEIGER

@<TRIPOS>ATOM
      1 C          60.2800   89.9105    9.6658 C.3     1  UNL1        0.0522
      2 C          61.3731   89.7220   10.6757 C.ar    1  UNL1        0.0625
      3 C          62.1587   90.9045   11.1600 C.ar    1  UNL1        0.0522
      4 C          63.2517   90.7160   12.1699 C.ar    1  UNL1        0.1482
      5 C          63.5591   89.3451   12.6953 C.ar    1  UNL1        0.0612
      6 C          62.7735   88.1627   12.2110 C.ar    1  UNL1        0.1374
      7 N          61.6805   88.3512   11.2011 N.ar    1  UNL1       -0.2449
      8 C          63.0809   86.7917   12.7364 C.2     1  UNL1        0.2684
      9 O          64.0129   86.6261   13.9000 O.2     1  UNL1       -0.2681
     10 N          62.4563   85.5865   12.0983 N.am    1  UNL1       -0.2646
     11 H          61.8446   85.6952   11.3346 H       1  UNL1        0.1566
     12 C          62.7637   84.2155   12.6238 C.ar    1  UNL1        0.1346
     13 C          63.5723   83.2596   11.7978 C.ar    1  UNL1        0.0368
     14 C          63.8797   81.8888   12.3233 C.ar    1  UNL1        0.0341
     15 C          63.3784   81.4738   13.6747 C.ar    1  UNL1        0.1593
     16 F          63.6858   80.1028   14.2002 F       1  UNL1       -0.2025
     17 C          62.5697   82.4297   14.5007 C.ar    1  UNL1        0.1298
     18 N          62.2624   83.8005   13.9753 N.ar    1  UNL1       -0.2267
     19 O          64.0374   91.8985   12.6542 O.3     1  UNL1       -0.4518
     20 C          65.4772   92.0534   12.2632 C.ar    1  UNL1        0.1666
     21 C          66.5573   91.8585   13.2857 C.ar    1  UNL1        0.1364
     22 N          67.9971   92.0135   12.8946 N.ar    1  UNL1       -0.2368
     23 C          68.3568   92.3634   11.4810 C.ar    1  UNL1        0.1286
     24 C          67.2768   92.5583   10.4586 C.ar    1  UNL1        0.1623
     25 F          67.6365   92.9082    9.0449 F       1  UNL1       -0.2024
     26 C          65.8370   92.4033   10.8496 C.ar    1  UNL1        0.0703
@<TRIPOS>BOND
     1     1     2    1
     2     2     3   ar
     3     3     4   ar
     4     4    19    1
     5    19    20    1
     6    20    21   ar
     7    21    22   ar
     8    22    23   ar
     9    23    24   ar
    10    24    25    1
    11    24    26   ar
    12     4     5   ar
    13     5     6   ar
    14     6     8    1
    15     8     9    2
    16     8    10   am
    17    10    12    1
    18    12    13   ar
    19    13    14   ar
    20    14    15   ar
    21    15    16    1
    22    15    17   ar
    23    17    18   ar
    24     6     7   ar
    25     7     2   ar
    26    26    20   ar
    27    18    12   ar
    28    10    11    1
@<TRIPOS>MOLECULE
*****
 26 28 0 0 0
SMALL
GASTEIGER

@<TRIPOS>ATOM
      1 C          63.4941   81.6755   13.1054 C.3     1  UNL1        0.0522
      2 C          63.3233   83.0862   12.6251 C.ar    1  UNL1        0.0625
      3 C          62.8689   83.3504   11.2203 C.ar    1  UNL1        0.0522
      4 C          62.6980   84.7611   10.7400 C.ar    1  UNL1        0.1482
      5 C          62.9816   85.9077   11.6646 C.ar    1  UNL1        0.0612
      6 C          63.4361   85.6435   13.0694 C.ar    1  UNL1        0.1374
      7 N          63.6069   84.2328   13.5497 N.ar    1  UNL1       -0.2449
      8 C          63.7197   86.7901   13.9941 C.2     1  UNL1        0.2684
      9 O          64.0792   86.5272   15.4265 O.2     1  UNL1       -0.2681
     10 N          63.6439   88.1995   13.4864 N.am    1  UNL1       -0.2646
     11 H          63.4080   88.3720   12.5462 H       1  UNL1        0.1566
     12 C          63.9276   89.3461   14.4110 C.ar    1  UNL1        0.1346
     13 C          65.0767   90.2687   14.1312 C.ar    1  UNL1        0.0368
     14 C          65.3602   91.4153   15.0558 C.ar    1  UNL1        0.0341
     15 C          64.4948   91.6392   16.2603 C.ar    1  UNL1        0.1593
     16 F          64.7784   92.7858   17.1850 F       1  UNL1       -0.2025
     17 C          63.3457   90.7165   16.5402 C.ar    1  UNL1        0.1298
     18 N          63.0621   89.5700   15.6155 N.ar    1  UNL1       -0.2267
     19 O          62.2436   85.0253    9.3351 O.3     1  UNL1       -0.4518
     20 C          61.4160   86.2386    9.0301 C.ar    1  UNL1        0.1666
     21 C          60.1961   86.1166    8.1658 C.ar    1  UNL1        0.1364
     22 N          59.3686   87.3299    7.8608 N.ar    1  UNL1       -0.2368
     23 C          59.7610   88.6653    8.4202 C.ar    1  UNL1        0.1286
     24 C          60.9809   88.7873    9.2845 C.ar    1  UNL1        0.1623
     25 F          61.3733   90.1227    9.8438 F       1  UNL1       -0.2024
     26 C          61.8084   87.5740    9.5894 C.ar    1  UNL1        0.0703
@<TRIPOS>BOND
     1     1     2    1
     2     2     3   ar
     3     3     4   ar
     4     4    19    1
     5    19    20    1
     6    20    21   ar
     7    21    22   ar
     8    22    23   ar
     9    23    24   ar
    10    24    25    1
    11    24    26   ar
    12     4     5   ar
    13     5     6   ar
    14     6     8    1
    15     8     9    2
    16     8    10   am
    17    10    12    1
    18    12    13   ar
    19    13    14   ar
    20    14    15   ar
    21    15    16    1
    22    15    17   ar
    23    17    18   ar
    24     6     7   ar
    25     7     2   ar
    26    26    20   ar
    27    18    12   ar
    28    10    11    1
@<TRIPOS>MOLECULE
*****
 26 28 0 0 0
SMALL
GASTEIGER

@<TRIPOS>ATOM
      1 C          59.7542   89.9947   10.0176 C.3     1  UNL1        0.0522
      2 C          60.8914   89.3172   10.7232 C.ar    1  UNL1        0.0625
      3 C          61.1223   87.8472   10.5340 C.ar    1  UNL1        0.0522
      4 C          62.2594   87.1697   11.2397 C.ar    1  UNL1        0.1482
      5 C          63.1656   87.9621   12.1345 C.ar    1  UNL1        0.0612
      6 C          62.9347   89.4321   12.3237 C.ar    1  UNL1        0.1374
      7 N          61.7976   90.1096   11.6181 N.ar    1  UNL1       -0.2449
      8 C          63.8409   90.2246   13.2186 C.2     1  UNL1        0.2684
      9 O          63.6786   90.1482   14.7078 O.2     1  UNL1       -0.2681
     10 N          64.9094   91.0935   12.6242 N.am    1  UNL1       -0.2646
     11 H          65.0160   91.1436   11.6468 H       1  UNL1        0.1566
     12 C          65.8156   91.8860   13.5191 C.ar    1  UNL1        0.1346
     13 C          66.6072   91.1931   14.5883 C.ar    1  UNL1        0.0368
     14 C          67.5134   91.9856   15.4831 C.ar    1  UNL1        0.0341
     15 C          67.6280   93.4711   15.3087 C.ar    1  UNL1        0.1593
     16 F          68.5342   94.2636   16.2036 F       1  UNL1       -0.2025
     17 C          66.8364   94.1639   14.2395 C.ar    1  UNL1        0.1298
     18 N          65.9302   93.3714   13.3447 N.ar    1  UNL1       -0.2267
     19 O          62.4903   85.6996   11.0504 O.3     1  UNL1       -0.4518
     20 C          62.7647   84.8246   12.2375 C.ar    1  UNL1        0.1666
     21 C          62.4140   85.2997   13.6164 C.ar    1  UNL1        0.1364
     22 N          62.6885   84.4247   14.8035 N.ar    1  UNL1       -0.2368
     23 C          63.3136   83.0747   14.6115 C.ar    1  UNL1        0.1286
     24 C          63.6643   82.5997   13.2326 C.ar    1  UNL1        0.1623
     25 F          64.2894   81.2497   13.0407 F       1  UNL1       -0.2024
     26 C          63.3898   83.4747   12.0456 C.ar    1  UNL1        0.0703
@<TRIPOS>BOND
     1     1     2    1
     2     2     3   ar
     3     3     4   ar
     4     4    19    1
     5    19    20    1
     6    20    21   ar
     7    21    22   ar
     8    22    23   ar
     9    23    24   ar
    10    24    25    1
    11    24    26   ar
    12     4     5   ar
    13     5     6   ar
    14     6     8    1
    15     8     9    2
    16     8    10   am
    17    10    12    1
    18    12    13   ar
    19    13    14   ar
    20    14    15   ar
    21    15    16    1
    22    15    17   ar
    23    17    18   ar
    24     6     7   ar
    25     7     2   ar
    26    26    20   ar
    27    18    12   ar
    28    10    11    1
