@<TRIPOS>MOLECULE
*****
 37 41 0 0 0
SMALL
GASTEIGER

@<TRIPOS>ATOM
      1 C          64.3721   91.4125   15.8552 C.2     1  UNL1        0.2553
      2 O          63.5124   92.1805   16.8150 O.2     1  UNL1       -0.2720
      3 N          64.0985   89.9599   15.6002 N.am    1  UNL1       -0.2773
      4 C          62.9652   89.2752   16.3050 C.3     1  UNL1        0.0949
      5 C          62.6915   87.8226   16.0501 C.3     1  UNL1        0.0375
      6 C          63.5512   87.0547   15.0902 C.3     1  UNL1        0.0613
      7 C          64.6845   87.7394   14.3854 C.3     1  UNL1        0.0375
      8 C          64.9582   89.1920   14.6403 C.3     1  UNL1        0.0949
      9 N          63.2776   85.6021   14.8353 N.3     1  UNL1       -0.2687
     10 C          62.7808   84.8169   16.0128 C.3     1  UNL1        0.0937
     11 C          62.4206   83.3624   16.0825 C.3     1  UNL1        0.1046
     12 N          62.4684   82.3339   14.9916 N.pl3   1  UNL1       -0.3317
     13 C          62.8880   82.5058   13.5618 C.ar    1  UNL1        0.0419
     14 C          62.7866   81.2164   12.8021 C.ar    1  UNL1        0.0140
     15 C          63.1607   81.1700   11.3503 C.ar    1  UNL1        0.0012
     16 C          63.6363   82.4129   10.6581 C.ar    1  UNL1       -0.0002
     17 C          63.7377   83.7022   11.4178 C.ar    1  UNL1       -0.0017
     18 C          63.3635   83.7487   12.8696 C.ar    1  UNL1        0.0070
     19 C          63.5369   85.1267   13.4364 C.3     1  UNL1        0.1004
     20 H          62.1871   81.4260   15.2480 H       1  UNL1        0.1468
     21 N          66.5705   92.5141   12.3769 N.3     1  UNL1       -0.2688
     22 C          67.2815   93.1173   13.5520 C.3     1  UNL1        0.0756
     23 C          66.7489   92.9089   14.9387 C.3     1  UNL1        0.0590
     24 C          65.5054   92.0973   15.1503 C.3     1  UNL1        0.2042
     25 F          65.8228   92.4626   16.5701 F       1  UNL1       -0.2306
     26 C          64.7944   91.4940   13.9753 C.3     1  UNL1        0.0590
     27 C          65.3270   91.7025   12.5886 C.3     1  UNL1        0.0756
     28 C          67.1031   92.7226   10.9903 C.3     1  UNL1        0.0993
     29 N          64.0729   96.8560   10.1340 N.pl3   1  UNL1       -0.3426
     30 C          65.3219   96.0781    9.8423 C.ar    1  UNL1        0.1251
     31 C          65.5880   94.7893   10.5621 C.ar    1  UNL1        0.0310
     32 C          66.8369   94.0114   10.2704 C.ar    1  UNL1       -0.0018
     33 C          67.8197   94.5223    9.2590 C.ar    1  UNL1        0.0179
     34 C          67.5536   95.8112    8.5391 C.ar    1  UNL1        0.1000
     35 N          66.3046   96.5890    8.8309 N.ar    1  UNL1       -0.2296
     36 H          63.4279   96.5206   10.7979 H       1  UNL1        0.1437
     37 H          63.8981   97.7019    9.6616 H       1  UNL1        0.1437
@<TRIPOS>BOND
     1    29    30    1
     2    30    31   ar
     3    31    32   ar
     4    32    28    1
     5    28    21    1
     6    21    22    1
     7    22    23    1
     8    23    24    1
     9    24    25    1
    10    24     1    1
    11     1     2    2
    12     1     3   am
    13     3     4    1
    14     4     5    1
    15     5     6    1
    16     6     9    1
    17     9    10    1
    18    10    11    1
    19    11    12    1
    20    12    13    1
    21    13    14   ar
    22    14    15   ar
    23    15    16   ar
    24    16    17   ar
    25    17    18   ar
    26    18    19    1
    27     6     7    1
    28     7     8    1
    29    24    26    1
    30    26    27    1
    31    32    33   ar
    32    33    34   ar
    33    34    35   ar
    34    35    30   ar
    35    27    21    1
    36     8     3    1
    37    19     9    1
    38    18    13   ar
    39    29    36    1
    40    29    37    1
    41    12    20    1
@<TRIPOS>MOLECULE
*****
 37 41 0 0 0
SMALL
GASTEIGER

@<TRIPOS>ATOM
      1 C          64.1696   90.7615   15.9814 C.2     1  UNL1        0.2553
      2 O          63.6382   91.3252   17.2659 O.2     1  UNL1       -0.2720
      3 N          63.9302   89.3210   15.6386 N.am    1  UNL1       -0.2773
      4 C          63.1594   88.4441   16.5803 C.3     1  UNL1        0.0949
      5 C          62.9200   87.0035   16.2375 C.3     1  UNL1        0.0375
      6 C          63.4514   86.4399   14.9529 C.3     1  UNL1        0.0613
      7 C          64.2223   87.3168   14.0113 C.3     1  UNL1        0.0375
      8 C          64.4617   88.7574   14.3540 C.3     1  UNL1        0.0949
      9 N          63.2121   84.9994   14.6102 N.3     1  UNL1       -0.2687
     10 C          62.6979   84.1412   15.7278 C.3     1  UNL1        0.0937
     11 C          62.3631   82.6791   15.7064 C.3     1  UNL1        0.1046
     12 N          62.4599   81.7143   14.5620 N.pl3   1  UNL1       -0.3317
     13 C          62.9153   81.9730   13.1564 C.ar    1  UNL1        0.0419
     14 C          62.8588   80.7266   12.3238 C.ar    1  UNL1        0.0140
     15 C          63.2735   80.7678   10.8828 C.ar    1  UNL1        0.0012
     16 C          63.7446   82.0555   10.2745 C.ar    1  UNL1       -0.0002
     17 C          63.8010   83.3019   11.1071 C.ar    1  UNL1       -0.0017
     18 C          63.3864   83.2606   12.5480 C.ar    1  UNL1        0.0070
     19 C          63.5185   84.6075   13.1951 C.3     1  UNL1        0.1004
     20 H          62.1887   80.7887   14.7595 H       1  UNL1        0.1468
     21 N          64.8842   92.5506   12.1823 N.3     1  UNL1       -0.2688
     22 C          65.9659   93.0335   13.1026 C.3     1  UNL1        0.0756
     23 C          65.9940   92.5774   14.5312 C.3     1  UNL1        0.0590
     24 C          64.9405   91.6385   15.0397 C.3     1  UNL1        0.2042
     25 F          65.7544   91.8167   16.2869 F       1  UNL1       -0.2306
     26 C          63.8588   91.1557   14.1194 C.3     1  UNL1        0.0590
     27 C          63.8306   91.6118   12.6907 C.3     1  UNL1        0.0756
     28 C          64.8560   93.0068   10.7536 C.3     1  UNL1        0.0993
     29 N          69.5498   92.2253    8.6660 N.pl3   1  UNL1       -0.3426
     30 C          68.4471   93.1582    9.0709 C.ar    1  UNL1        0.1251
     31 C          67.2029   92.6161    9.7098 C.ar    1  UNL1        0.0310
     32 C          66.1002   93.5489   10.1147 C.ar    1  UNL1       -0.0018
     33 C          66.2416   95.0237    9.8806 C.ar    1  UNL1        0.0179
     34 C          67.4858   95.5658    9.2417 C.ar    1  UNL1        0.1000
     35 N          68.5885   94.6330    8.8369 N.ar    1  UNL1       -0.2296
     36 H          69.4569   91.2573    8.8197 H       1  UNL1        0.1437
     37 H          70.3664   92.5811    8.2467 H       1  UNL1        0.1437
@<TRIPOS>BOND
     1    29    30    1
     2    30    31   ar
     3    31    32   ar
     4    32    28    1
     5    28    21    1
     6    21    22    1
     7    22    23    1
     8    23    24    1
     9    24    25    1
    10    24     1    1
    11     1     2    2
    12     1     3   am
    13     3     4    1
    14     4     5    1
    15     5     6    1
    16     6     9    1
    17     9    10    1
    18    10    11    1
    19    11    12    1
    20    12    13    1
    21    13    14   ar
    22    14    15   ar
    23    15    16   ar
    24    16    17   ar
    25    17    18   ar
    26    18    19    1
    27     6     7    1
    28     7     8    1
    29    24    26    1
    30    26    27    1
    31    32    33   ar
    32    33    34   ar
    33    34    35   ar
    34    35    30   ar
    35    27    21    1
    36     8     3    1
    37    19     9    1
    38    18    13   ar
    39    29    36    1
    40    29    37    1
    41    12    20    1
@<TRIPOS>MOLECULE
*****
 37 41 0 0 0
SMALL
GASTEIGER

@<TRIPOS>ATOM
      1 C          59.5758   88.2476    7.3442 C.2     1  UNL1        0.2553
      2 O          59.4543   86.8133    6.9221 O.2     1  UNL1       -0.2720
      3 N          60.4871   88.6219    8.4753 N.am    1  UNL1       -0.2773
      4 C          61.2768   87.5620    9.1844 C.3     1  UNL1        0.0949
      5 C          62.1881   87.9362   10.3155 C.3     1  UNL1        0.0375
      6 C          62.3096   89.3706   10.7376 C.3     1  UNL1        0.0613
      7 C          61.5198   90.4305   10.0285 C.3     1  UNL1        0.0375
      8 C          60.6085   90.0562    8.8973 C.3     1  UNL1        0.0949
      9 N          63.2208   89.7449   11.8687 N.3     1  UNL1       -0.2687
     10 C          63.2986   88.7581   12.9957 C.3     1  UNL1        0.0937
     11 C          64.1085   88.8392   14.2557 C.3     1  UNL1        0.1046
     12 N          65.0408   89.9272   14.6997 N.pl3   1  UNL1       -0.3317
     13 C          65.3934   91.2027   13.9935 C.ar    1  UNL1        0.0419
     14 C          66.3705   92.0171   14.7885 C.ar    1  UNL1        0.0140
     15 C          66.8550   93.3342   14.2588 C.ar    1  UNL1        0.0012
     16 C          66.3624   93.8368   12.9341 C.ar    1  UNL1       -0.0002
     17 C          65.3853   93.0224   12.1392 C.ar    1  UNL1       -0.0017
     18 C          64.9008   91.7053   12.6689 C.ar    1  UNL1        0.0070
     19 C          63.9339   91.0565   11.7233 C.3     1  UNL1        0.1004
     20 H          65.4793   89.7853   15.5697 H       1  UNL1        0.1468
     21 N          59.2061   91.6568    4.8173 N.3     1  UNL1       -0.2688
     22 C          57.8202   91.2851    5.2545 C.3     1  UNL1        0.0756
     23 C          57.6101   90.1104    6.1633 C.3     1  UNL1        0.0590
     24 C          58.7860   89.3075    6.6351 C.3     1  UNL1        0.2042
     25 F          57.6744   88.5677    7.3185 F       1  UNL1       -0.2306
     26 C          60.1720   89.6792    6.1979 C.3     1  UNL1        0.0590
     27 C          60.3820   90.8539    5.2890 C.3     1  UNL1        0.0756
     28 C          59.4161   92.8314    3.9084 C.3     1  UNL1        0.0993
     29 N          64.2449   92.2784    2.0708 N.pl3   1  UNL1       -0.3426
     30 C          62.7740   92.4458    1.8286 C.ar    1  UNL1        0.1251
     31 C          61.8305   92.5549    2.9896 C.ar    1  UNL1        0.0310
     32 C          60.3596   92.7223    2.7475 C.ar    1  UNL1       -0.0018
     33 C          59.8324   92.7804    1.3444 C.ar    1  UNL1        0.0179
     34 C          60.7759   92.6712    0.1834 C.ar    1  UNL1        0.1000
     35 N          62.2468   92.5039    0.4256 N.ar    1  UNL1       -0.2296
     36 H          64.5910   92.2403    2.9917 H       1  UNL1        0.1437
     37 H          64.8643   92.2068    1.3089 H       1  UNL1        0.1437
@<TRIPOS>BOND
     1    29    30    1
     2    30    31   ar
     3    31    32   ar
     4    32    28    1
     5    28    21    1
     6    21    22    1
     7    22    23    1
     8    23    24    1
     9    24    25    1
    10    24     1    1
    11     1     2    2
    12     1     3   am
    13     3     4    1
    14     4     5    1
    15     5     6    1
    16     6     9    1
    17     9    10    1
    18    10    11    1
    19    11    12    1
    20    12    13    1
    21    13    14   ar
    22    14    15   ar
    23    15    16   ar
    24    16    17   ar
    25    17    18   ar
    26    18    19    1
    27     6     7    1
    28     7     8    1
    29    24    26    1
    30    26    27    1
    31    32    33   ar
    32    33    34   ar
    33    34    35   ar
    34    35    30   ar
    35    27    21    1
    36     8     3    1
    37    19     9    1
    38    18    13   ar
    39    29    36    1
    40    29    37    1
    41    12    20    1
@<TRIPOS>MOLECULE
*****
 37 41 0 0 0
SMALL
GASTEIGER

@<TRIPOS>ATOM
      1 C          62.9554   86.0645   16.5211 C.2     1  UNL1        0.2553
      2 O          61.8884   86.0597   17.5753 O.2     1  UNL1       -0.2720
      3 N          63.5115   87.3654   16.0226 N.am    1  UNL1       -0.2773
      4 C          63.0005   88.6615   16.5784 C.3     1  UNL1        0.0949
      5 C          63.5565   89.9624   16.0799 C.3     1  UNL1        0.0375
      6 C          64.6236   89.9672   15.0256 C.3     1  UNL1        0.0613
      7 C          65.1345   88.6710   14.4698 C.3     1  UNL1        0.0375
      8 C          64.5785   87.3701   14.9683 C.3     1  UNL1        0.0949
      9 N          65.1796   91.2680   14.5272 N.3     1  UNL1       -0.2687
     10 C          65.8797   92.1116   15.5511 C.3     1  UNL1        0.0937
     11 C          66.5352   93.4488   15.3714 C.3     1  UNL1        0.1046
     12 N          66.6523   94.2727   14.1234 N.pl3   1  UNL1       -0.3317
     13 C          66.1431   93.9630   12.7469 C.ar    1  UNL1        0.0419
     14 C          66.4747   95.0608   11.7801 C.ar    1  UNL1        0.0140
     15 C          66.0540   94.9484   10.3447 C.ar    1  UNL1        0.0012
     16 C          65.3017   93.7381    9.8762 C.ar    1  UNL1       -0.0002
     17 C          64.9702   92.6403   10.8430 C.ar    1  UNL1       -0.0017
     18 C          65.3909   92.7528   12.2784 C.ar    1  UNL1        0.0070
     19 C          64.9621   91.5534   13.0707 C.3     1  UNL1        0.1004
     20 H          67.1262   95.1302   14.2207 H       1  UNL1        0.1468
     21 N          62.4495   82.2750   14.6428 N.3     1  UNL1       -0.2688
     22 C          63.9169   82.4387   14.9071 C.3     1  UNL1        0.0756
     23 C          64.4253   83.6854   15.5683 C.3     1  UNL1        0.0590
     24 C          63.4664   84.7683   15.9653 C.3     1  UNL1        0.2042
     25 F          64.7563   85.3822   16.4226 F       1  UNL1       -0.2306
     26 C          61.9989   84.6046   15.7010 C.3     1  UNL1        0.0590
     27 C          61.4905   83.3578   15.0397 C.3     1  UNL1        0.0756
     28 C          61.9410   81.0282   13.9816 C.3     1  UNL1        0.0993
     29 N          62.7717   77.4980   10.2603 N.pl3   1  UNL1       -0.3426
     30 C          62.7899   78.9240   10.7256 C.ar    1  UNL1        0.1251
     31 C          62.3564   79.2632   12.1209 C.ar    1  UNL1        0.0310
     32 C          62.3745   80.6891   12.5862 C.ar    1  UNL1       -0.0018
     33 C          62.8262   81.7758   11.6561 C.ar    1  UNL1        0.0179
     34 C          63.2597   81.4366   10.2607 C.ar    1  UNL1        0.1000
     35 N          63.2415   80.0106    9.7955 N.ar    1  UNL1       -0.2296
     36 H          62.4752   76.7848   10.8708 H       1  UNL1        0.1437
     37 H          63.0562   77.2753    9.3445 H       1  UNL1        0.1437
@<TRIPOS>BOND
     1    29    30    1
     2    30    31   ar
     3    31    32   ar
     4    32    28    1
     5    28    21    1
     6    21    22    1
     7    22    23    1
     8    23    24    1
     9    24    25    1
    10    24     1    1
    11     1     2    2
    12     1     3   am
    13     3     4    1
    14     4     5    1
    15     5     6    1
    16     6     9    1
    17     9    10    1
    18    10    11    1
    19    11    12    1
    20    12    13    1
    21    13    14   ar
    22    14    15   ar
    23    15    16   ar
    24    16    17   ar
    25    17    18   ar
    26    18    19    1
    27     6     7    1
    28     7     8    1
    29    24    26    1
    30    26    27    1
    31    32    33   ar
    32    33    34   ar
    33    34    35   ar
    34    35    30   ar
    35    27    21    1
    36     8     3    1
    37    19     9    1
    38    18    13   ar
    39    29    36    1
    40    29    37    1
    41    12    20    1
