@<TRIPOS>MOLECULE
*****
 45 49 0 0 0
SMALL
GASTEIGER

@<TRIPOS>ATOM
      1 C          63.5017   89.4917   15.7809 C.3     1  UNL1        0.0473
      2 C          62.6148   88.8026   16.7752 C.3     1  UNL1        0.0038
      3 C          63.1574   87.6856   17.6166 C.3     1  UNL1        0.0005
      4 C          62.3637   86.4250   17.7921 C.3     1  UNL1        0.0047
      5 C          62.1918   85.4803   16.6397 C.3     1  UNL1        0.0261
      6 C          64.4954   83.5688   14.0341 C.ar    1  UNL1        0.1342
      7 C          65.7113   84.4474   14.0328 C.ar    1  UNL1        0.0365
      8 C          65.7539   85.6702   14.9005 C.ar    1  UNL1        0.0028
      9 C          64.5808   86.0146   15.7694 C.ar    1  UNL1       -0.0044
     10 C          63.3650   85.1360   15.7707 C.ar    1  UNL1       -0.0232
     11 C          63.3223   83.9131   14.9031 C.ar    1  UNL1        0.0082
     12 C          62.1065   83.0347   14.9044 C.3     1  UNL1        0.0350
     13 C          61.7711   82.2164   13.6928 C.3     1  UNL1        0.0465
     14 C          61.2901   80.8045   13.8510 C.2     1  UNL1        0.0507
     15 O          59.9433   80.5340   14.4535 O.co2   1  UNL1       -0.5492
     16 O          62.1559   79.6629   13.4066 O.co2   1  UNL1       -0.5492
     17 O          64.4528   82.3460   13.1665 O.3     1  UNL1       -0.4758
     18 C          64.2863   82.4849   11.6822 C.3     1  UNL1        0.2058
     19 C          64.1172   83.8440   11.0704 C.3     1  UNL1        0.0532
     20 C          62.7459   84.4324   10.9177 C.3     1  UNL1        0.0455
     21 O          60.9375   86.1242   11.7034 O.co2   1  UNL1       -0.5492
     22 C          62.3609   85.6510   11.7032 C.2     1  UNL1        0.0505
     23 O          63.3993   86.3962   12.4883 O.co2   1  UNL1       -0.5492
     24 C          63.8340   90.9443   15.9527 C.3     1  UNL1        0.2054
     25 O          64.8890   91.5787   15.0957 O.3     1  UNL1       -0.4755
     26 C          64.6968   91.6654   13.6106 C.ar    1  UNL1        0.1386
     27 C          65.6035   92.5305   12.7862 C.ar    1  UNL1        0.0369
     28 C          65.4113   92.6173   11.3011 C.ar    1  UNL1        0.0035
     29 C          64.3125   91.8389   10.6403 C.ar    1  UNL1        0.0002
     30 C          63.4058   90.9738   11.4647 C.ar    1  UNL1        0.0031
     31 C          63.5980   90.8871   12.9498 C.ar    1  UNL1        0.0369
     32 C          62.3068   90.1954   10.8038 C.ar    1  UNL1        0.0033
     33 C          60.8861   90.6640   10.9121 C.ar    1  UNL1        0.0033
     34 C          59.7872   89.8856   10.2513 C.ar    1  UNL1        0.0402
     35 C          60.1092   88.6386    9.4823 C.ar    1  UNL1        0.1764
     36 C          61.5300   88.1700    9.3740 C.ar    1  UNL1        0.1764
     37 C          62.6289   88.9484   10.0348 C.ar    1  UNL1        0.0402
     38 O          61.5425   86.9131    8.5555 O.3     1  UNL1       -0.4346
     39 C          60.1294   86.6049    8.1579 C.3     1  UNL1        0.4294
     40 O          59.2435   87.6713    8.7307 O.3     1  UNL1       -0.4346
     41 C          66.3180   93.4824   10.4767 C.ar    1  UNL1        0.0071
     42 C          67.5303   93.0221    9.7228 C.ar    1  UNL1        0.0075
     43 C          68.1331   94.2149    9.0416 C.ar    1  UNL1        0.0355
     44 S          67.2932   95.4124    9.3746 S.2     1  UNL1       -0.0859
     45 C          66.1715   94.9596   10.2615 C.ar    1  UNL1        0.0354
@<TRIPOS>UNITY_ATOM_ATTR
15 1
charge -1
21 1
charge -1
@<TRIPOS>BOND
     1    21    22   ar
     2    22    23   ar
     3    22    20    1
     4    20    19    1
     5    19    18    1
     6    18    17    1
     7    17     6    1
     8     6     7   ar
     9     7     8   ar
    10     8     9   ar
    11     9    10   ar
    12    10     5    1
    13     5     4    1
    14     4     3    1
    15     3     2    1
    16     2     1    1
    17     1    24    1
    18    24    25    1
    19    25    26    1
    20    26    27   ar
    21    27    28   ar
    22    28    41    1
    23    41    42   ar
    24    42    43   ar
    25    43    44   ar
    26    44    45   ar
    27    28    29   ar
    28    29    30   ar
    29    30    32    1
    30    32    33   ar
    31    33    34   ar
    32    34    35   ar
    33    35    36   ar
    34    36    37   ar
    35    36    38    1
    36    38    39    1
    37    39    40    1
    38    30    31   ar
    39    10    11   ar
    40    11    12    1
    41    12    13    1
    42    13    14    1
    43    14    15   ar
    44    14    16   ar
    45    11     6   ar
    46    31    26   ar
    47    45    41   ar
    48    37    32   ar
    49    40    35    1
@<TRIPOS>MOLECULE
*****
 45 49 0 0 0
SMALL
GASTEIGER

@<TRIPOS>ATOM
      1 C          62.0329   90.3528   10.9921 C.3     1  UNL1        0.0473
      2 C          60.6233   90.4732   10.4934 C.3     1  UNL1        0.0038
      3 C          59.7965   89.2406   10.2769 C.3     1  UNL1        0.0005
      4 C          60.0463   88.3704    9.0809 C.3     1  UNL1        0.0047
      5 C          61.3777   87.7024    8.9044 C.3     1  UNL1        0.0261
      6 C          63.1409   84.4523   10.3456 C.ar    1  UNL1        0.1342
      7 C          62.6809   84.4895   11.7729 C.ar    1  UNL1        0.0365
      8 C          61.7865   85.5978   12.2440 C.ar    1  UNL1        0.0028
      9 C          61.3521   86.6687   11.2878 C.ar    1  UNL1       -0.0044
     10 C          61.8121   86.6315    9.8606 C.ar    1  UNL1       -0.0232
     11 C          62.7065   85.5232    9.3894 C.ar    1  UNL1        0.0082
     12 C          63.1665   85.4860    7.9622 C.3     1  UNL1        0.0350
     13 C          62.6942   84.3926    7.0504 C.3     1  UNL1        0.0465
     14 C          61.3878   84.5315    6.3266 C.2     1  UNL1        0.0507
     15 O          60.2284   85.2090    6.9950 O.co2   1  UNL1       -0.5492
     16 O          61.2408   83.9930    4.9343 O.co2   1  UNL1       -0.5492
     17 O          64.0353   83.3440    9.8746 O.3     1  UNL1       -0.4758
     18 C          64.1665   82.0896   10.6865 C.3     1  UNL1        0.2058
     19 C          63.0240   81.1204   10.7592 C.3     1  UNL1        0.0532
     20 C          62.8375   80.2712   11.9816 C.3     1  UNL1        0.0455
     21 O          61.2358   81.1683   13.8200 O.co2   1  UNL1       -0.5492
     22 C          62.6273   80.9174   13.3188 C.2     1  UNL1        0.0505
     23 O          63.8083   81.3127   14.1548 O.co2   1  UNL1       -0.5492
     24 C          63.1426   91.0730   10.2851 C.3     1  UNL1        0.2054
     25 O          64.0424   91.9985   11.0492 O.3     1  UNL1       -0.4755
     26 C          64.6506   91.5523   12.3458 C.ar    1  UNL1        0.1386
     27 C          65.8382   92.2774   12.9060 C.ar    1  UNL1        0.0369
     28 C          66.4464   91.8312   14.2025 C.ar    1  UNL1        0.0035
     29 C          65.8671   90.6598   14.9388 C.ar    1  UNL1        0.0002
     30 C          64.6795   89.9347   14.3786 C.ar    1  UNL1        0.0031
     31 C          64.0713   90.3809   13.0821 C.ar    1  UNL1        0.0369
     32 C          64.1001   88.7632   15.1150 C.ar    1  UNL1        0.0033
     33 C          63.3292   88.9812   16.3830 C.ar    1  UNL1        0.0033
     34 C          62.7499   87.8098   17.1194 C.ar    1  UNL1        0.0402
     35 C          62.9415   86.4204   16.5876 C.ar    1  UNL1        0.1764
     36 C          63.7124   86.2024   15.3195 C.ar    1  UNL1        0.1764
     37 C          64.2918   87.3737   14.5831 C.ar    1  UNL1        0.0402
     38 O          63.7378   84.7289   15.0399 O.3     1  UNL1       -0.4346
     39 C          62.9825   84.0362   16.1352 C.3     1  UNL1        0.4294
     40 O          62.4903   85.0816   17.0917 O.3     1  UNL1       -0.4346
     41 C          67.6340   92.5564   14.7628 C.ar    1  UNL1        0.0071
     42 C          69.0733   92.2193   14.5088 C.ar    1  UNL1        0.0075
     43 C          69.9195   93.2005   15.2645 C.ar    1  UNL1        0.0355
     44 S          69.0031   94.1442   15.9855 S.2     1  UNL1       -0.0859
     45 C          67.5906   93.7461   15.6755 C.ar    1  UNL1        0.0354
@<TRIPOS>UNITY_ATOM_ATTR
15 1
charge -1
21 1
charge -1
@<TRIPOS>BOND
     1    21    22   ar
     2    22    23   ar
     3    22    20    1
     4    20    19    1
     5    19    18    1
     6    18    17    1
     7    17     6    1
     8     6     7   ar
     9     7     8   ar
    10     8     9   ar
    11     9    10   ar
    12    10     5    1
    13     5     4    1
    14     4     3    1
    15     3     2    1
    16     2     1    1
    17     1    24    1
    18    24    25    1
    19    25    26    1
    20    26    27   ar
    21    27    28   ar
    22    28    41    1
    23    41    42   ar
    24    42    43   ar
    25    43    44   ar
    26    44    45   ar
    27    28    29   ar
    28    29    30   ar
    29    30    32    1
    30    32    33   ar
    31    33    34   ar
    32    34    35   ar
    33    35    36   ar
    34    36    37   ar
    35    36    38    1
    36    38    39    1
    37    39    40    1
    38    30    31   ar
    39    10    11   ar
    40    11    12    1
    41    12    13    1
    42    13    14    1
    43    14    15   ar
    44    14    16   ar
    45    11     6   ar
    46    31    26   ar
    47    45    41   ar
    48    37    32   ar
    49    40    35    1
@<TRIPOS>MOLECULE
*****
 45 49 0 0 0
SMALL
GASTEIGER

@<TRIPOS>ATOM
      1 C          59.1919   89.0211    6.8679 C.3     1  UNL1        0.0473
      2 C          59.7104   90.0608    5.9192 C.3     1  UNL1        0.0038
      3 C          58.7552   90.9861    5.2254 C.3     1  UNL1        0.0005
      4 C          59.2270   92.3244    4.7391 C.3     1  UNL1        0.0047
      5 C          59.5069   92.5365    3.2808 C.3     1  UNL1        0.0261
      6 C          62.7181   93.8212    1.3346 C.ar    1  UNL1        0.1342
      7 C          63.7539   92.8546    1.8277 C.ar    1  UNL1        0.0365
      8 C          63.3740   91.7821    2.8051 C.ar    1  UNL1        0.0028
      9 C          61.9583   91.6761    3.2895 C.ar    1  UNL1       -0.0044
     10 C          60.9226   92.6425    2.7964 C.ar    1  UNL1       -0.0232
     11 C          61.3024   93.7151    1.8189 C.ar    1  UNL1        0.0082
     12 C          60.2666   94.6815    1.3259 C.3     1  UNL1        0.0350
     13 C          59.7042   94.5371   -0.0571 C.3     1  UNL1        0.0465
     14 C          59.0283   93.2608   -0.4624 C.2     1  UNL1        0.0507
     15 O          59.8439   92.1080   -0.9682 O.co2   1  UNL1       -0.5492
     16 O          57.5367   93.1374   -0.3620 O.co2   1  UNL1       -0.5492
     17 O          63.0980   94.8937    0.3572 O.3     1  UNL1       -0.4758
     18 C          64.1699   94.6360   -0.6599 C.3     1  UNL1        0.2058
     19 C          64.2277   95.4578   -1.9134 C.3     1  UNL1        0.0532
     20 C          64.5125   94.7984   -3.2302 C.3     1  UNL1        0.0455
     21 O          62.4767   93.1864   -3.1456 O.co2   1  UNL1       -0.5492
     22 C          63.8913   93.4722   -3.5548 C.2     1  UNL1        0.0505
     23 O          64.6847   92.4318   -4.2884 O.co2   1  UNL1       -0.5492
     24 C          59.6617   89.0046    8.2923 C.3     1  UNL1        0.2054
     25 O          59.8144   87.7000    9.0166 O.3     1  UNL1       -0.4755
     26 C          60.8896   87.5370   10.0498 C.ar    1  UNL1        0.1386
     27 C          61.2002   86.1770   10.6009 C.ar    1  UNL1        0.0369
     28 C          62.2754   86.0141   11.6340 C.ar    1  UNL1        0.0035
     29 C          63.0399   87.2112   12.1161 C.ar    1  UNL1        0.0002
     30 C          62.7293   88.5712   11.5650 C.ar    1  UNL1        0.0031
     31 C          61.6541   88.7342   10.5318 C.ar    1  UNL1        0.0369
     32 C          63.4938   89.7684   12.0471 C.ar    1  UNL1        0.0033
     33 C          63.7506   90.9180   11.1185 C.ar    1  UNL1        0.0033
     34 C          64.5151   92.1152   11.6006 C.ar    1  UNL1        0.0402
     35 C          65.0228   92.1627   13.0112 C.ar    1  UNL1        0.1764
     36 C          64.7660   91.0130   13.9399 C.ar    1  UNL1        0.1764
     37 C          64.0015   89.8159   13.4578 C.ar    1  UNL1        0.0402
     38 O          65.3851   91.3411   15.2661 O.3     1  UNL1       -0.4346
     39 C          66.0246   92.6936   15.1572 C.3     1  UNL1        0.4294
     40 O          65.8007   93.2013   13.7636 O.3     1  UNL1       -0.4346
     41 C          62.5862   84.6540   12.1852 C.ar    1  UNL1        0.0071
     42 C          62.9378   83.4366   11.3825 C.ar    1  UNL1        0.0075
     43 C          63.1688   82.3028   12.3370 C.ar    1  UNL1        0.0355
     44 S          62.9599   82.8195   13.7297 S.2     1  UNL1       -0.0859
     45 C          62.5999   84.2726   13.6359 C.ar    1  UNL1        0.0354
@<TRIPOS>UNITY_ATOM_ATTR
15 1
charge -1
21 1
charge -1
@<TRIPOS>BOND
     1    21    22   ar
     2    22    23   ar
     3    22    20    1
     4    20    19    1
     5    19    18    1
     6    18    17    1
     7    17     6    1
     8     6     7   ar
     9     7     8   ar
    10     8     9   ar
    11     9    10   ar
    12    10     5    1
    13     5     4    1
    14     4     3    1
    15     3     2    1
    16     2     1    1
    17     1    24    1
    18    24    25    1
    19    25    26    1
    20    26    27   ar
    21    27    28   ar
    22    28    41    1
    23    41    42   ar
    24    42    43   ar
    25    43    44   ar
    26    44    45   ar
    27    28    29   ar
    28    29    30   ar
    29    30    32    1
    30    32    33   ar
    31    33    34   ar
    32    34    35   ar
    33    35    36   ar
    34    36    37   ar
    35    36    38    1
    36    38    39    1
    37    39    40    1
    38    30    31   ar
    39    10    11   ar
    40    11    12    1
    41    12    13    1
    42    13    14    1
    43    14    15   ar
    44    14    16   ar
    45    11     6   ar
    46    31    26   ar
    47    45    41   ar
    48    37    32   ar
    49    40    35    1
@<TRIPOS>MOLECULE
*****
 45 49 0 0 0
SMALL
GASTEIGER

@<TRIPOS>ATOM
      1 C          58.6086   91.1741    5.2725 C.3     1  UNL1        0.0473
      2 C          59.6779   90.2578    5.7894 C.3     1  UNL1        0.0038
      3 C          59.4433   89.4606    7.0381 C.3     1  UNL1        0.0005
      4 C          59.1521   87.9920    6.9467 C.3     1  UNL1        0.0047
      5 C          59.2475   87.1309    8.1712 C.3     1  UNL1        0.0261
      6 C          62.3884   85.7524   10.1671 C.ar    1  UNL1        0.1342
      7 C          63.0752   84.9542    9.0987 C.ar    1  UNL1        0.0365
      8 C          62.4860   84.8816    7.7212 C.ar    1  UNL1        0.0028
      9 C          61.2101   85.6072    7.4120 C.ar    1  UNL1       -0.0044
     10 C          60.5234   86.4053    8.4804 C.ar    1  UNL1       -0.0232
     11 C          61.1125   86.4780    9.8580 C.ar    1  UNL1        0.0082
     12 C          60.4258   87.2761   10.9262 C.3     1  UNL1        0.0350
     13 C          60.7098   88.7423   11.0663 C.3     1  UNL1        0.0465
     14 C          62.1153   89.2160   11.2902 C.2     1  UNL1        0.0507
     15 O          62.8431   89.9463   10.2008 O.co2   1  UNL1       -0.5492
     16 O          62.7930   88.9593   12.6035 O.co2   1  UNL1       -0.5492
     17 O          62.9777   85.8250   11.5447 O.3     1  UNL1       -0.4758
     18 C          62.6468   84.7702   12.5585 C.3     1  UNL1        0.2058
     19 C          63.2850   83.4158   12.4673 C.3     1  UNL1        0.0532
     20 C          62.4286   82.1861   12.4013 C.3     1  UNL1        0.0455
     21 O          60.9419   81.0050   14.1747 O.co2   1  UNL1       -0.5492
     22 C          62.2975   81.2981   13.6031 C.2     1  UNL1        0.0505
     23 O          63.5219   80.7032   14.2332 O.co2   1  UNL1       -0.5492
     24 C          58.9549   92.2491    4.2853 C.3     1  UNL1        0.2054
     25 O          60.3453   92.3372    3.7295 O.3     1  UNL1       -0.4755
     26 C          60.5720   92.9154    2.3641 C.ar    1  UNL1        0.1386
     27 C          61.8101   93.7144    2.0840 C.ar    1  UNL1        0.0369
     28 C          62.0368   94.2925    0.7186 C.ar    1  UNL1        0.0035
     29 C          61.0253   94.0716   -0.3668 C.ar    1  UNL1        0.0002
     30 C          59.7871   93.2726   -0.0867 C.ar    1  UNL1        0.0031
     31 C          59.5604   92.6945    1.2787 C.ar    1  UNL1        0.0369
     32 C          58.7755   93.0517   -1.1721 C.ar    1  UNL1        0.0033
     33 C          57.4038   92.5515   -0.8284 C.ar    1  UNL1        0.0033
     34 C          56.3923   92.3306   -1.9137 C.ar    1  UNL1        0.0402
     35 C          56.7525   92.6098   -3.3428 C.ar    1  UNL1        0.1764
     36 C          58.1242   93.1100   -3.6866 C.ar    1  UNL1        0.1764
     37 C          59.1358   93.3309   -2.6012 C.ar    1  UNL1        0.0402
     38 O          58.1905   93.2966   -5.1734 O.3     1  UNL1       -0.4346
     39 C          56.8597   92.9117   -5.7486 C.3     1  UNL1        0.4294
     40 O          55.9710   92.4873   -4.6173 O.3     1  UNL1       -0.4346
     41 C          63.2750   95.0916    0.4384 C.ar    1  UNL1        0.0071
     42 C          64.3127   94.7755   -0.5976 C.ar    1  UNL1        0.0075
     43 C          65.3718   95.8356   -0.5312 C.ar    1  UNL1        0.0355
     44 S          64.9887   96.8069    0.5459 S.2     1  UNL1       -0.0859
     45 C          63.6928   96.3471    1.1451 C.ar    1  UNL1        0.0354
@<TRIPOS>UNITY_ATOM_ATTR
15 1
charge -1
21 1
charge -1
@<TRIPOS>BOND
     1    21    22   ar
     2    22    23   ar
     3    22    20    1
     4    20    19    1
     5    19    18    1
     6    18    17    1
     7    17     6    1
     8     6     7   ar
     9     7     8   ar
    10     8     9   ar
    11     9    10   ar
    12    10     5    1
    13     5     4    1
    14     4     3    1
    15     3     2    1
    16     2     1    1
    17     1    24    1
    18    24    25    1
    19    25    26    1
    20    26    27   ar
    21    27    28   ar
    22    28    41    1
    23    41    42   ar
    24    42    43   ar
    25    43    44   ar
    26    44    45   ar
    27    28    29   ar
    28    29    30   ar
    29    30    32    1
    30    32    33   ar
    31    33    34   ar
    32    34    35   ar
    33    35    36   ar
    34    36    37   ar
    35    36    38    1
    36    38    39    1
    37    39    40    1
    38    30    31   ar
    39    10    11   ar
    40    11    12    1
    41    12    13    1
    42    13    14    1
    43    14    15   ar
    44    14    16   ar
    45    11     6   ar
    46    31    26   ar
    47    45    41   ar
    48    37    32   ar
    49    40    35    1
@<TRIPOS>MOLECULE
*****
 45 49 0 0 0
SMALL
GASTEIGER

@<TRIPOS>ATOM
      1 C          63.0722   84.6686   10.3189 C.3     1  UNL1        0.0473
      2 C          63.7352   83.4034    9.8609 C.3     1  UNL1        0.0038
      3 C          64.6474   82.6566   10.7883 C.3     1  UNL1        0.0005
      4 C          64.0725   81.8039   11.8803 C.3     1  UNL1        0.0047
      5 C          64.5797   81.9417   13.2852 C.3     1  UNL1        0.0261
      6 C          63.3109   84.8889   15.6206 C.ar    1  UNL1        0.1342
      7 C          64.3694   85.9225   15.3729 C.ar    1  UNL1        0.0365
      8 C          65.4979   85.6292   14.4293 C.ar    1  UNL1        0.0028
      9 C          65.5680   84.3023   13.7334 C.ar    1  UNL1       -0.0044
     10 C          64.5096   83.2687   13.9811 C.ar    1  UNL1       -0.0232
     11 C          63.3810   83.5619   14.9247 C.ar    1  UNL1        0.0082
     12 C          62.3226   82.5283   15.1723 C.3     1  UNL1        0.0350
     13 C          61.4231   82.0930   14.0536 C.3     1  UNL1        0.0465
     14 C          60.9653   80.6670   13.9709 C.2     1  UNL1        0.0507
     15 O          61.8738   79.6196   13.3986 O.co2   1  UNL1       -0.5492
     16 O          59.5990   80.2884   14.4606 O.co2   1  UNL1       -0.5492
     17 O          62.1823   85.1822   16.5642 O.3     1  UNL1       -0.4758
     18 C          62.3603   86.1979   17.6535 C.3     1  UNL1        0.2058
     19 C          62.0838   87.6467   17.3806 C.3     1  UNL1        0.0532
     20 C          63.2202   88.5919   17.1251 C.3     1  UNL1        0.0455
     21 O          63.5299   91.1435   16.7465 O.co2   1  UNL1       -0.5492
     22 C          63.0030   89.8165   16.2865 C.2     1  UNL1        0.0505
     23 O          62.2590   89.7141   14.9881 O.co2   1  UNL1       -0.5492
     24 C          62.3265   84.6960   11.6202 C.3     1  UNL1        0.2054
     25 O          62.0892   86.0006   12.3213 O.3     1  UNL1       -0.4755
     26 C          62.0743   87.2805   11.5391 C.ar    1  UNL1        0.1386
     27 C          61.1545   87.4305   10.3638 C.ar    1  UNL1        0.0369
     28 C          61.1395   88.7103    9.5817 C.ar    1  UNL1        0.0035
     29 C          62.0443   89.8402    9.9749 C.ar    1  UNL1        0.0002
     30 C          62.9641   89.6902   11.1502 C.ar    1  UNL1        0.0031
     31 C          62.9791   88.4104   11.9324 C.ar    1  UNL1        0.0369
     32 C          63.8690   90.8202   11.5435 C.ar    1  UNL1        0.0033
     33 C          64.4219   90.8884   12.9362 C.ar    1  UNL1        0.0033
     34 C          65.3267   92.0183   13.3294 C.ar    1  UNL1        0.0402
     35 C          65.6786   93.0799   12.3299 C.ar    1  UNL1        0.1764
     36 C          65.1258   93.0117   10.9372 C.ar    1  UNL1        0.1764
     37 C          64.2209   91.8819   10.5440 C.ar    1  UNL1        0.0402
     38 O          65.6450   94.1940   10.1739 O.3     1  UNL1       -0.4346
     39 C          66.5188   94.9929   11.0949 C.3     1  UNL1        0.4294
     40 O          66.5396   94.3044   12.4274 O.3     1  UNL1       -0.4346
     41 C          60.2197   88.8604    8.4062 C.ar    1  UNL1        0.0071
     42 C          59.2192   87.8472    7.9346 C.ar    1  UNL1        0.0075
     43 C          58.5201   88.4106    6.7330 C.ar    1  UNL1        0.0355
     44 S          59.0886   89.7721    6.4620 S.2     1  UNL1       -0.0859
     45 C          60.1390   90.0500    7.4961 C.ar    1  UNL1        0.0354
@<TRIPOS>UNITY_ATOM_ATTR
15 1
charge -1
21 1
charge -1
@<TRIPOS>BOND
     1    21    22   ar
     2    22    23   ar
     3    22    20    1
     4    20    19    1
     5    19    18    1
     6    18    17    1
     7    17     6    1
     8     6     7   ar
     9     7     8   ar
    10     8     9   ar
    11     9    10   ar
    12    10     5    1
    13     5     4    1
    14     4     3    1
    15     3     2    1
    16     2     1    1
    17     1    24    1
    18    24    25    1
    19    25    26    1
    20    26    27   ar
    21    27    28   ar
    22    28    41    1
    23    41    42   ar
    24    42    43   ar
    25    43    44   ar
    26    44    45   ar
    27    28    29   ar
    28    29    30   ar
    29    30    32    1
    30    32    33   ar
    31    33    34   ar
    32    34    35   ar
    33    35    36   ar
    34    36    37   ar
    35    36    38    1
    36    38    39    1
    37    39    40    1
    38    30    31   ar
    39    10    11   ar
    40    11    12    1
    41    12    13    1
    42    13    14    1
    43    14    15   ar
    44    14    16   ar
    45    11     6   ar
    46    31    26   ar
    47    45    41   ar
    48    37    32   ar
    49    40    35    1
@<TRIPOS>MOLECULE
*****
 45 49 0 0 0
SMALL
GASTEIGER

@<TRIPOS>ATOM
      1 C          59.6772   89.4103    7.3226 C.3     1  UNL1        0.0473
      2 C          59.2624   89.7465    5.9209 C.3     1  UNL1        0.0038
      3 C          58.4820   90.9985    5.6495 C.3     1  UNL1        0.0005
      4 C          58.5973   91.6804    4.3184 C.3     1  UNL1        0.0047
      5 C          59.6091   92.7697    4.1189 C.3     1  UNL1        0.0261
      6 C          62.6931   92.9667    1.6290 C.ar    1  UNL1        0.1342
      7 C          63.5480   91.8484    2.1476 C.ar    1  UNL1        0.0365
      8 C          63.0897   91.0373    3.3232 C.ar    1  UNL1        0.0028
      9 C          61.7768   91.3443    3.9803 C.ar    1  UNL1       -0.0044
     10 C          60.9220   92.4626    3.4618 C.ar    1  UNL1       -0.0232
     11 C          61.3802   93.2738    2.2861 C.ar    1  UNL1        0.0082
     12 C          60.5253   94.3920    1.7677 C.3     1  UNL1        0.0350
     13 C          59.4630   94.1123    0.7463 C.3     1  UNL1        0.0465
     14 C          59.7837   93.2827   -0.4615 C.2     1  UNL1        0.0507
     15 O          59.8417   93.9225   -1.8170 O.co2   1  UNL1       -0.5492
     16 O          60.0464   91.8133   -0.3139 O.co2   1  UNL1       -0.5492
     17 O          63.1513   93.7779    0.4534 O.3     1  UNL1       -0.4758
     18 C          64.6171   93.9825    0.2089 C.3     1  UNL1        0.2058
     19 C          65.1399   95.3512   -0.1126 C.3     1  UNL1        0.0532
     20 C          65.1107   95.8523   -1.5261 C.3     1  UNL1        0.0455
     21 O          62.6639   95.5543   -2.3474 O.co2   1  UNL1       -0.5492
     22 C          64.1299   95.2783   -2.5052 C.2     1  UNL1        0.0505
     23 O          64.6150   94.4284   -3.6420 O.co2   1  UNL1       -0.5492
     24 C          59.7121   87.9795    7.7716 C.3     1  UNL1        0.2054
     25 O          59.5353   87.6445    9.2230 O.3     1  UNL1       -0.4755
     26 C          60.7183   87.6578   10.1453 C.ar    1  UNL1        0.1386
     27 C          61.4766   88.9316   10.3741 C.ar    1  UNL1        0.0369
     28 C          62.6595   88.9450   11.2963 C.ar    1  UNL1        0.0035
     29 C          63.0841   87.6845   11.9898 C.ar    1  UNL1        0.0002
     30 C          62.3258   86.4107   11.7610 C.ar    1  UNL1        0.0031
     31 C          61.1429   86.3974   10.8387 C.ar    1  UNL1        0.0369
     32 C          62.7504   85.1501   12.4545 C.ar    1  UNL1        0.0033
     33 C          63.6087   85.2223   13.6824 C.ar    1  UNL1        0.0033
     34 C          64.0333   83.9619   14.3759 C.ar    1  UNL1        0.0402
     35 C          63.5996   82.6292   13.8413 C.ar    1  UNL1        0.1764
     36 C          62.7413   82.5569   12.6133 C.ar    1  UNL1        0.1764
     37 C          62.3167   83.8174   11.9198 C.ar    1  UNL1        0.0402
     38 O          62.4710   81.1107   12.3210 O.3     1  UNL1       -0.4346
     39 C          63.1623   80.2891   13.3684 C.3     1  UNL1        0.4294
     40 O          63.8598   81.2276   14.3080 O.3     1  UNL1       -0.4346
     41 C          63.4179   90.2188   11.5252 C.ar    1  UNL1        0.0071
     42 C          63.6622   91.2943   10.5085 C.ar    1  UNL1        0.0075
     43 C          64.4604   92.3809   11.1659 C.ar    1  UNL1        0.0355
     44 S          64.7093   91.9770   12.5889 S.2     1  UNL1       -0.0859
     45 C          64.0650   90.6408   12.8110 C.ar    1  UNL1        0.0354
@<TRIPOS>UNITY_ATOM_ATTR
15 1
charge -1
21 1
charge -1
@<TRIPOS>BOND
     1    21    22   ar
     2    22    23   ar
     3    22    20    1
     4    20    19    1
     5    19    18    1
     6    18    17    1
     7    17     6    1
     8     6     7   ar
     9     7     8   ar
    10     8     9   ar
    11     9    10   ar
    12    10     5    1
    13     5     4    1
    14     4     3    1
    15     3     2    1
    16     2     1    1
    17     1    24    1
    18    24    25    1
    19    25    26    1
    20    26    27   ar
    21    27    28   ar
    22    28    41    1
    23    41    42   ar
    24    42    43   ar
    25    43    44   ar
    26    44    45   ar
    27    28    29   ar
    28    29    30   ar
    29    30    32    1
    30    32    33   ar
    31    33    34   ar
    32    34    35   ar
    33    35    36   ar
    34    36    37   ar
    35    36    38    1
    36    38    39    1
    37    39    40    1
    38    30    31   ar
    39    10    11   ar
    40    11    12    1
    41    12    13    1
    42    13    14    1
    43    14    15   ar
    44    14    16   ar
    45    11     6   ar
    46    31    26   ar
    47    45    41   ar
    48    37    32   ar
    49    40    35    1
@<TRIPOS>MOLECULE
*****
 45 49 0 0 0
SMALL
GASTEIGER

@<TRIPOS>ATOM
      1 C          63.6510   88.4351   16.0440 C.3     1  UNL1        0.0473
      2 C          62.8522   87.7500   17.1129 C.3     1  UNL1        0.0038
      3 C          63.0012   86.2734   17.3303 C.3     1  UNL1        0.0005
      4 C          62.7173   85.3178   16.2095 C.3     1  UNL1        0.0047
      5 C          63.8282   84.8693   15.3068 C.3     1  UNL1        0.0261
      6 C          63.7756   83.4600   11.5973 C.ar    1  UNL1        0.1342
      7 C          63.1533   84.6119   10.8652 C.ar    1  UNL1        0.0365
      8 C          62.7560   85.8496   11.6137 C.ar    1  UNL1        0.0028
      9 C          62.9810   85.9354   13.0942 C.ar    1  UNL1       -0.0044
     10 C          63.6032   84.7835   13.8263 C.ar    1  UNL1       -0.0232
     11 C          64.0006   83.5457   13.0778 C.ar    1  UNL1        0.0082
     12 C          64.6228   82.3939   13.8099 C.3     1  UNL1        0.0350
     13 C          63.8787   81.0980   13.9399 C.3     1  UNL1        0.0465
     14 C          62.3851   81.1014   14.0785 C.2     1  UNL1        0.0507
     15 O          61.5808   79.9480   13.5563 O.co2   1  UNL1       -0.5492
     16 O          61.6958   82.2582   14.7392 O.co2   1  UNL1       -0.5492
     17 O          64.1730   82.2223   10.8487 O.3     1  UNL1       -0.4758
     18 C          63.1192   81.3222   10.2748 C.3     1  UNL1        0.2058
     19 C          63.0434   79.8870   10.7045 C.3     1  UNL1        0.0532
     20 C          62.7825   78.8132    9.6903 C.3     1  UNL1        0.0455
     21 O          64.6745   77.2548    8.8291 O.co2   1  UNL1       -0.5492
     22 C          63.5301   77.5148    9.7633 C.2     1  UNL1        0.0505
     23 O          63.1333   76.4766   10.7706 O.co2   1  UNL1       -0.5492
     24 C          63.4948   89.9101   15.8202 C.3     1  UNL1        0.2054
     25 O          64.5490   90.6708   15.0718 O.3     1  UNL1       -0.4755
     26 C          64.3753   90.9506   13.6084 C.ar    1  UNL1        0.1386
     27 C          65.2561   91.9557   12.9272 C.ar    1  UNL1        0.0369
     28 C          65.0824   92.2355   11.4638 C.ar    1  UNL1        0.0035
     29 C          64.0279   91.5102   10.6816 C.ar    1  UNL1        0.0002
     30 C          63.1471   90.5051   11.3627 C.ar    1  UNL1        0.0031
     31 C          63.3208   90.2253   12.8261 C.ar    1  UNL1        0.0369
     32 C          62.0925   89.7798   10.5804 C.ar    1  UNL1        0.0033
     33 C          60.7262   90.3795   10.4281 C.ar    1  UNL1        0.0033
     34 C          59.6716   89.6542    9.6459 C.ar    1  UNL1        0.0402
     35 C          59.9836   88.3291    9.0159 C.ar    1  UNL1        0.1764
     36 C          61.3500   87.7294    9.1681 C.ar    1  UNL1        0.1764
     37 C          62.4045   88.4547    9.9504 C.ar    1  UNL1        0.0402
     38 O          61.3645   86.4182    8.4397 O.3     1  UNL1       -0.4346
     39 C          60.0071   86.2076    7.8373 C.3     1  UNL1        0.4294
     40 O          59.1536   87.3886    8.1933 O.3     1  UNL1       -0.4346
     41 C          65.9632   93.2406   10.7826 C.ar    1  UNL1        0.0071
     42 C          67.2235   92.9399   10.0269 C.ar    1  UNL1        0.0075
     43 C          67.7775   94.2363    9.5148 C.ar    1  UNL1        0.0355
     44 S          66.8595   95.3384    9.9540 S.2     1  UNL1       -0.0859
     45 C          65.7382   94.7230   10.7375 C.ar    1  UNL1        0.0354
@<TRIPOS>UNITY_ATOM_ATTR
15 1
charge -1
21 1
charge -1
@<TRIPOS>BOND
     1    21    22   ar
     2    22    23   ar
     3    22    20    1
     4    20    19    1
     5    19    18    1
     6    18    17    1
     7    17     6    1
     8     6     7   ar
     9     7     8   ar
    10     8     9   ar
    11     9    10   ar
    12    10     5    1
    13     5     4    1
    14     4     3    1
    15     3     2    1
    16     2     1    1
    17     1    24    1
    18    24    25    1
    19    25    26    1
    20    26    27   ar
    21    27    28   ar
    22    28    41    1
    23    41    42   ar
    24    42    43   ar
    25    43    44   ar
    26    44    45   ar
    27    28    29   ar
    28    29    30   ar
    29    30    32    1
    30    32    33   ar
    31    33    34   ar
    32    34    35   ar
    33    35    36   ar
    34    36    37   ar
    35    36    38    1
    36    38    39    1
    37    39    40    1
    38    30    31   ar
    39    10    11   ar
    40    11    12    1
    41    12    13    1
    42    13    14    1
    43    14    15   ar
    44    14    16   ar
    45    11     6   ar
    46    31    26   ar
    47    45    41   ar
    48    37    32   ar
    49    40    35    1
@<TRIPOS>MOLECULE
*****
 45 49 0 0 0
SMALL
GASTEIGER

@<TRIPOS>ATOM
      1 C          62.4178   84.5801    7.1293 C.3     1  UNL1        0.0473
      2 C          63.1146   85.2027    8.3026 C.3     1  UNL1        0.0038
      3 C          63.1264   84.4996    9.6276 C.3     1  UNL1        0.0005
      4 C          63.9465   83.2570    9.8100 C.3     1  UNL1        0.0047
      5 C          64.5337   82.9363   11.1525 C.3     1  UNL1        0.0261
      6 C          62.8497   82.8109   14.7439 C.ar    1  UNL1        0.1342
      7 C          61.8475   81.7119   14.5488 C.ar    1  UNL1        0.0365
      8 C          61.7408   81.0211   13.2216 C.ar    1  UNL1        0.0028
      9 C          62.6362   81.4292   12.0895 C.ar    1  UNL1       -0.0044
     10 C          63.6383   82.5281   12.2846 C.ar    1  UNL1       -0.0232
     11 C          63.7451   83.2190   13.6118 C.ar    1  UNL1        0.0082
     12 C          64.7472   84.3179   13.8068 C.3     1  UNL1        0.0350
     13 C          64.3223   85.7511   13.6825 C.3     1  UNL1        0.0465
     14 C          63.1504   86.1138   12.8192 C.2     1  UNL1        0.0507
     15 O          61.9104   85.2702   12.8450 O.co2   1  UNL1       -0.5492
     16 O          63.2186   87.3200   11.9302 O.co2   1  UNL1       -0.5492
     17 O          62.9564   83.5017   16.0710 O.3     1  UNL1       -0.4758
     18 C          62.4318   84.8974   16.2344 C.3     1  UNL1        0.2058
     19 C          63.2191   85.9080   17.0149 C.3     1  UNL1        0.0532
     20 C          62.6546   87.2772   17.2528 C.3     1  UNL1        0.0455
     21 O          62.7683   89.8401   16.8418 O.co2   1  UNL1       -0.5492
     22 C          63.1536   88.4436   16.4524 C.2     1  UNL1        0.0505
     23 O          64.0378   88.2136   15.2628 O.co2   1  UNL1       -0.5492
     24 C          60.9765   84.8956    6.8590 C.3     1  UNL1        0.2054
     25 O          60.1545   85.5971    7.8994 O.3     1  UNL1       -0.4755
     26 C          60.2235   87.0899    8.0286 C.ar    1  UNL1        0.1386
     27 C          59.5287   87.9625    7.0257 C.ar    1  UNL1        0.0369
     28 C          59.5977   89.4553    7.1550 C.ar    1  UNL1        0.0035
     29 C          60.3614   90.0756    8.2872 C.ar    1  UNL1        0.0002
     30 C          61.0561   89.2030    9.2901 C.ar    1  UNL1        0.0031
     31 C          60.9872   87.7102    9.1609 C.ar    1  UNL1        0.0369
     32 C          61.8199   89.8233   10.4225 C.ar    1  UNL1        0.0033
     33 C          61.3624   89.6195   11.8363 C.ar    1  UNL1        0.0033
     34 C          62.1261   90.2397   12.9685 C.ar    1  UNL1        0.0402
     35 C          63.3474   91.0639   12.6869 C.ar    1  UNL1        0.1764
     36 C          63.8049   91.2678   11.2730 C.ar    1  UNL1        0.1764
     37 C          63.0412   90.6475   10.1407 C.ar    1  UNL1        0.0402
     38 O          65.0362   92.1239   11.3031 O.3     1  UNL1       -0.4346
     39 C          65.3397   92.4491   12.7356 C.3     1  UNL1        0.4294
     40 O          64.2959   91.7940   13.5909 O.3     1  UNL1       -0.4346
     41 C          58.9029   90.3279    6.1520 C.ar    1  UNL1        0.0071
     42 C          57.4216   90.4099    5.9308 C.ar    1  UNL1        0.0075
     43 C          57.1707   91.4044    4.8362 C.ar    1  UNL1        0.0355
     44 S          58.4971   91.9371    4.3810 S.2     1  UNL1       -0.0859
     45 C          59.5676   91.2718    5.1942 C.ar    1  UNL1        0.0354
@<TRIPOS>UNITY_ATOM_ATTR
15 1
charge -1
21 1
charge -1
@<TRIPOS>BOND
     1    21    22   ar
     2    22    23   ar
     3    22    20    1
     4    20    19    1
     5    19    18    1
     6    18    17    1
     7    17     6    1
     8     6     7   ar
     9     7     8   ar
    10     8     9   ar
    11     9    10   ar
    12    10     5    1
    13     5     4    1
    14     4     3    1
    15     3     2    1
    16     2     1    1
    17     1    24    1
    18    24    25    1
    19    25    26    1
    20    26    27   ar
    21    27    28   ar
    22    28    41    1
    23    41    42   ar
    24    42    43   ar
    25    43    44   ar
    26    44    45   ar
    27    28    29   ar
    28    29    30   ar
    29    30    32    1
    30    32    33   ar
    31    33    34   ar
    32    34    35   ar
    33    35    36   ar
    34    36    37   ar
    35    36    38    1
    36    38    39    1
    37    39    40    1
    38    30    31   ar
    39    10    11   ar
    40    11    12    1
    41    12    13    1
    42    13    14    1
    43    14    15   ar
    44    14    16   ar
    45    11     6   ar
    46    31    26   ar
    47    45    41   ar
    48    37    32   ar
    49    40    35    1
@<TRIPOS>MOLECULE
*****
 45 49 0 0 0
SMALL
GASTEIGER

@<TRIPOS>ATOM
      1 C          63.0960   89.7038   16.0772 C.3     1  UNL1        0.0473
      2 C          63.8722   88.4204   16.0538 C.3     1  UNL1        0.0038
      3 C          64.3216   87.8394   14.7460 C.3     1  UNL1        0.0005
      4 C          64.2626   86.3571   14.5240 C.3     1  UNL1        0.0047
      5 C          63.5366   85.8054   13.3330 C.3     1  UNL1        0.0261
      6 C          62.8316   82.0996   12.1004 C.ar    1  UNL1        0.1342
      7 C          62.1742   81.5167   13.3163 C.ar    1  UNL1        0.0365
      8 C          61.9711   82.3634   14.5376 C.ar    1  UNL1        0.0028
      9 C          62.4252   83.7930   14.5432 C.ar    1  UNL1       -0.0044
     10 C          63.0825   84.3758   13.3274 C.ar    1  UNL1       -0.0232
     11 C          63.2857   83.5292   12.1059 C.ar    1  UNL1        0.0082
     12 C          63.9430   84.1121   10.8902 C.3     1  UNL1        0.0350
     13 C          63.4015   83.8057    9.5253 C.3     1  UNL1        0.0465
     14 C          63.0877   84.9229    8.5749 C.2     1  UNL1        0.0507
     15 O          63.1392   86.3458    9.0467 O.co2   1  UNL1       -0.5492
     16 O          62.7223   84.6172    7.1525 O.co2   1  UNL1       -0.5492
     17 O          63.0348   81.2528   10.8790 O.3     1  UNL1       -0.4758
     18 C          62.7358   79.7837   10.9267 C.3     1  UNL1        0.2058
     19 C          62.6604   78.9920    9.6548 C.3     1  UNL1        0.0532
     20 C          63.8770   78.2808    9.1409 C.3     1  UNL1        0.0455
     21 O          65.3253   76.1297    8.9822 O.co2   1  UNL1       -0.5492
     22 C          64.1407   76.8598    9.5424 C.2     1  UNL1        0.0505
     23 O          63.2199   76.1690   10.5041 O.co2   1  UNL1       -0.5492
     24 C          63.8179   91.0152   16.1730 C.3     1  UNL1        0.2054
     25 O          64.9468   91.3202   15.2335 O.3     1  UNL1       -0.4755
     26 C          64.6894   91.4196   13.7591 C.ar    1  UNL1        0.1386
     27 C          65.4515   92.4103   12.9298 C.ar    1  UNL1        0.0369
     28 C          65.1941   92.5097   11.4554 C.ar    1  UNL1        0.0035
     29 C          64.1747   91.6183   10.8103 C.ar    1  UNL1        0.0002
     30 C          63.4126   90.6276   11.6395 C.ar    1  UNL1        0.0031
     31 C          63.6700   90.5282   13.1140 C.ar    1  UNL1        0.0369
     32 C          62.3931   89.7361   10.9944 C.ar    1  UNL1        0.0033
     33 C          62.0128   88.4388   11.6441 C.ar    1  UNL1        0.0033
     34 C          60.9934   87.5474   10.9989 C.ar    1  UNL1        0.0402
     35 C          60.3543   87.9535    9.7041 C.ar    1  UNL1        0.1764
     36 C          60.7345   89.2509    9.0544 C.ar    1  UNL1        0.1764
     37 C          61.7540   90.1422    9.6995 C.ar    1  UNL1        0.0402
     38 O          59.9414   89.3853    7.7884 O.3     1  UNL1       -0.4346
     39 C          59.0708   88.1710    7.6557 C.3     1  UNL1        0.4294
     40 O          59.3260   87.2860    8.8396 O.3     1  UNL1       -0.4346
     41 C          65.9562   93.5004   10.6260 C.ar    1  UNL1        0.0071
     42 C          65.6491   94.9629   10.4963 C.ar    1  UNL1        0.0075
     43 C          66.6622   95.5689    9.5709 C.ar    1  UNL1        0.0355
     44 S          67.5954   94.4809    9.1287 S.2     1  UNL1       -0.0859
     45 C          67.1590   93.2025    9.7808 C.ar    1  UNL1        0.0354
@<TRIPOS>UNITY_ATOM_ATTR
15 1
charge -1
21 1
charge -1
@<TRIPOS>BOND
     1    21    22   ar
     2    22    23   ar
     3    22    20    1
     4    20    19    1
     5    19    18    1
     6    18    17    1
     7    17     6    1
     8     6     7   ar
     9     7     8   ar
    10     8     9   ar
    11     9    10   ar
    12    10     5    1
    13     5     4    1
    14     4     3    1
    15     3     2    1
    16     2     1    1
    17     1    24    1
    18    24    25    1
    19    25    26    1
    20    26    27   ar
    21    27    28   ar
    22    28    41    1
    23    41    42   ar
    24    42    43   ar
    25    43    44   ar
    26    44    45   ar
    27    28    29   ar
    28    29    30   ar
    29    30    32    1
    30    32    33   ar
    31    33    34   ar
    32    34    35   ar
    33    35    36   ar
    34    36    37   ar
    35    36    38    1
    36    38    39    1
    37    39    40    1
    38    30    31   ar
    39    10    11   ar
    40    11    12    1
    41    12    13    1
    42    13    14    1
    43    14    15   ar
    44    14    16   ar
    45    11     6   ar
    46    31    26   ar
    47    45    41   ar
    48    37    32   ar
    49    40    35    1
