@<TRIPOS>MOLECULE
*****
 37 42 0 0 0
SMALL
GASTEIGER

@<TRIPOS>ATOM
      1 C          59.3971   88.9725    7.2586 C.ar    1  UNL1        0.0508
      2 C          59.4594   87.4752    7.1926 C.ar    1  UNL1        0.0512
      3 C          60.2239   86.7098    8.2317 C.ar    1  UNL1        0.1408
      4 O          60.2863   85.2125    8.1656 O.3     1  UNL1       -0.5053
      5 C          60.9260   87.4417    9.3369 C.ar    1  UNL1        0.1064
      6 C          61.6905   86.6763   10.3760 C.2     1  UNL1        0.2027
      7 O          61.7529   85.1791   10.3099 O.2     1  UNL1       -0.2865
      8 C          62.3926   87.4081   11.4811 C.2     1  UNL1        0.0814
      9 C          63.2172   86.9270   12.6381 C.2     1  UNL1        0.1072
     10 N          63.6645   88.1270   13.4193 N.2     1  UNL1       -0.2478
     11 C          63.1164   89.3496   12.7450 C.2     1  UNL1        0.0851
     12 C          62.3303   88.9054   11.5472 C.3     1  UNL1        0.2287
     13 O          61.5658   89.6708   10.5081 O.3     1  UNL1       -0.4686
     14 C          60.8637   88.9389    9.4029 C.ar    1  UNL1        0.1466
     15 C          60.0992   89.7043    8.3638 C.ar    1  UNL1        0.0515
     16 H          59.8477   84.7554    7.4752 H       1  UNL1        0.2922
     17 C          63.5382   85.4971   12.9578 C.ar    1  UNL1        0.1283
     18 N          63.9328   84.4398   11.9696 N.ar    1  UNL1       -0.2353
     19 C          64.1594   83.1626   12.7230 C.ar    1  UNL1        0.1065
     20 C          63.9047   83.4305   14.1768 C.ar    1  UNL1        0.0576
     21 S          63.5208   84.8733   14.3220 S.2     1  UNL1       -0.0644
     22 N          58.6326   89.7379    6.2195 N.pl3   1  UNL1       -0.3305
     23 H          57.6624   89.6017    6.1224 H       1  UNL1        0.1469
     24 C          59.3463   90.7107    5.3284 C.3     1  UNL1        0.1196
     25 C          58.6001   91.8659    4.7294 C.3     1  UNL1        0.1634
     26 C          60.0643   92.9916    2.9022 C.3     1  UNL1        0.1742
     27 O          59.3507   93.0604    4.2198 O.3     1  UNL1       -0.3493
     28 C          63.3187   90.7676   13.1904 C.3     1  UNL1        0.0717
     29 C          64.7069   91.3043   13.3767 C.ar    1  UNL1       -0.0132
     30 C          65.4513   91.8806   12.2089 C.ar    1  UNL1       -0.0006
     31 C          66.8395   92.4174   12.3952 C.ar    1  UNL1        0.0399
     32 C          67.4834   92.3778   13.7494 C.ar    1  UNL1        0.1764
     33 C          66.7391   91.8015   14.9172 C.ar    1  UNL1        0.1761
     34 C          65.3509   91.2648   14.7309 C.ar    1  UNL1        0.0363
     35 O          67.6249   91.8964   16.1240 O.3     1  UNL1       -0.4346
     36 C          68.9168   92.5314   15.7020 C.3     1  UNL1        0.4294
     37 O          68.8293   92.8289   14.2343 O.3     1  UNL1       -0.4346
@<TRIPOS>BOND
     1    26    27    1
     2    27    25    1
     3    25    24    1
     4    24    22    1
     5    22     1    1
     6     1     2   ar
     7     2     3   ar
     8     3     4    1
     9     3     5   ar
    10     5     6    1
    11     6     7    2
    12     6     8    1
    13     8     9    2
    14     9    17    1
    15    17    18   ar
    16    18    19   ar
    17    19    20   ar
    18    20    21   ar
    19     9    10    1
    20    10    11    2
    21    11    28    1
    22    28    29    1
    23    29    30   ar
    24    30    31   ar
    25    31    32   ar
    26    32    33   ar
    27    33    34   ar
    28    33    35    1
    29    35    36    1
    30    36    37    1
    31    11    12    1
    32    12    13    1
    33    13    14    1
    34    14    15   ar
    35    15     1   ar
    36    14     5   ar
    37    12     8    1
    38    21    17   ar
    39    34    29   ar
    40    37    32    1
    41    22    23    1
    42     4    16    1
@<TRIPOS>MOLECULE
*****
 37 42 0 0 0
SMALL
GASTEIGER

@<TRIPOS>ATOM
      1 C          60.1560   89.2918    8.2951 C.ar    1  UNL1        0.0508
      2 C          60.0931   87.8326    7.9532 C.ar    1  UNL1        0.0512
      3 C          60.7576   86.8245    8.8432 C.ar    1  UNL1        0.1408
      4 O          60.6947   85.3652    8.5013 O.3     1  UNL1       -0.5053
      5 C          61.4849   87.2754   10.0751 C.ar    1  UNL1        0.1064
      6 C          62.1493   86.2673   10.9651 C.2     1  UNL1        0.2027
      7 O          62.0864   84.8081   10.6233 O.2     1  UNL1       -0.2865
      8 C          62.8766   86.7182   12.1970 C.2     1  UNL1        0.0814
      9 C          63.6214   85.9614   13.2565 C.2     1  UNL1        0.1072
     10 N          64.1446   86.9529   14.2532 N.2     1  UNL1       -0.2478
     11 C          63.7231   88.3224   13.8097 C.2     1  UNL1        0.0851
     12 C          62.9395   88.1774   12.5390 C.3     1  UNL1        0.2287
     13 O          62.2751   89.1856   11.6489 O.3     1  UNL1       -0.4686
     14 C          61.5477   88.7346   10.4170 C.ar    1  UNL1        0.1466
     15 C          60.8833   89.7427    9.5270 C.ar    1  UNL1        0.0515
     16 H          60.2403   85.0835    7.7317 H       1  UNL1        0.2922
     17 C          63.8099   84.4743   13.3099 C.ar    1  UNL1        0.1283
     18 N          64.4694   83.6308   12.2593 N.ar    1  UNL1       -0.2353
     19 C          64.4390   82.2047   12.7235 C.ar    1  UNL1        0.1065
     20 C          63.7608   82.1668   14.0608 C.ar    1  UNL1        0.0576
     21 S          63.3720   83.5695   14.4234 S.2     1  UNL1       -0.0644
     22 N          59.4916   90.2999    7.4051 N.pl3   1  UNL1       -0.3305
     23 H          59.1734   91.1531    7.7794 H       1  UNL1        0.1469
     24 C          59.3119   90.0082    5.9447 C.3     1  UNL1        0.1196
     25 C          59.3872   91.1218    4.9426 C.3     1  UNL1        0.1634
     26 C          56.8031   91.3902    4.9612 C.3     1  UNL1        0.1742
     27 O          58.1623   91.9261    4.6217 O.3     1  UNL1       -0.3493
     28 C          64.0312   89.6107   14.5134 C.3     1  UNL1        0.0717
     29 C          64.8694   90.6538   13.8355 C.ar    1  UNL1       -0.0132
     30 C          66.1871   91.0581   14.4273 C.ar    1  UNL1       -0.0006
     31 C          67.0253   92.1011   13.7494 C.ar    1  UNL1        0.0399
     32 C          66.5458   92.7398   12.4797 C.ar    1  UNL1        0.1764
     33 C          65.2281   92.3355   11.8880 C.ar    1  UNL1        0.1761
     34 C          64.3899   91.2925   12.5659 C.ar    1  UNL1        0.0363
     35 O          65.0179   93.1341   10.6357 O.3     1  UNL1       -0.4346
     36 C          66.2056   94.0319   10.4535 C.3     1  UNL1        0.4294
     37 O          67.1500   93.7882   11.5932 O.3     1  UNL1       -0.4346
@<TRIPOS>BOND
     1    26    27    1
     2    27    25    1
     3    25    24    1
     4    24    22    1
     5    22     1    1
     6     1     2   ar
     7     2     3   ar
     8     3     4    1
     9     3     5   ar
    10     5     6    1
    11     6     7    2
    12     6     8    1
    13     8     9    2
    14     9    17    1
    15    17    18   ar
    16    18    19   ar
    17    19    20   ar
    18    20    21   ar
    19     9    10    1
    20    10    11    2
    21    11    28    1
    22    28    29    1
    23    29    30   ar
    24    30    31   ar
    25    31    32   ar
    26    32    33   ar
    27    33    34   ar
    28    33    35    1
    29    35    36    1
    30    36    37    1
    31    11    12    1
    32    12    13    1
    33    13    14    1
    34    14    15   ar
    35    15     1   ar
    36    14     5   ar
    37    12     8    1
    38    21    17   ar
    39    34    29   ar
    40    37    32    1
    41    22    23    1
    42     4    16    1
@<TRIPOS>MOLECULE
*****
 37 42 0 0 0
SMALL
GASTEIGER

@<TRIPOS>ATOM
      1 C          60.4066   87.2956    9.3791 C.ar    1  UNL1        0.0508
      2 C          60.7262   88.7197    9.0331 C.ar    1  UNL1        0.0512
      3 C          61.6645   89.5089    9.8972 C.ar    1  UNL1        0.1408
      4 O          61.9842   90.9331    9.5512 O.3     1  UNL1       -0.5053
      5 C          62.2830   88.8742   11.1073 C.ar    1  UNL1        0.1064
      6 C          63.2213   89.6634   11.9715 C.2     1  UNL1        0.2027
      7 O          63.5410   91.0875   11.6255 O.2     1  UNL1       -0.2865
      8 C          63.8399   89.0286   13.1816 C.2     1  UNL1        0.0814
      9 C          64.7935   89.5535   14.2136 C.2     1  UNL1        0.1072
     10 N          65.0632   88.4538   15.1974 N.2     1  UNL1       -0.2478
     11 C          64.2762   87.2492   14.7734 C.2     1  UNL1        0.0851
     12 C          63.5202   87.6045   13.5276 C.3     1  UNL1        0.2287
     13 O          62.5819   86.8152   12.6634 O.3     1  UNL1       -0.4686
     14 C          61.9634   87.4501   11.4533 C.ar    1  UNL1        0.1466
     15 C          61.0251   86.6608   10.5892 C.ar    1  UNL1        0.0515
     16 H          61.5977   91.3296    8.7953 H       1  UNL1        0.2922
     17 C          65.3752   90.9355   14.2546 C.ar    1  UNL1        0.1283
     18 N          66.0160   91.6568   13.1060 N.ar    1  UNL1       -0.2353
     19 C          66.4551   93.0060   13.5930 C.ar    1  UNL1        0.1065
     20 C          66.0859   93.1184   15.0425 C.ar    1  UNL1        0.0576
     21 S          65.4184   91.8388   15.4514 S.2     1  UNL1       -0.0644
     22 N          59.4683   86.5063    8.5149 N.pl3   1  UNL1       -0.3305
     23 H          58.5583   86.3052    8.8322 H       1  UNL1        0.1469
     24 C          59.9166   86.0234    7.1674 C.3     1  UNL1        0.1196
     25 C          60.8537   84.8569    7.0623 C.3     1  UNL1        0.1634
     26 C          63.1402   85.1011    8.2716 C.3     1  UNL1        0.1742
     27 O          62.3349   85.0874    7.0062 O.3     1  UNL1       -0.3493
     28 C          64.2499   85.9224   15.4725 C.3     1  UNL1        0.0717
     29 C          63.9629   84.6713   14.6964 C.ar    1  UNL1       -0.0132
     30 C          64.8014   84.3199   13.5033 C.ar    1  UNL1       -0.0006
     31 C          64.5143   83.0688   12.7271 C.ar    1  UNL1        0.0399
     32 C          63.3889   82.1691   13.1440 C.ar    1  UNL1        0.1764
     33 C          62.5504   82.5205   14.3371 C.ar    1  UNL1        0.1761
     34 C          62.8374   83.7716   15.1132 C.ar    1  UNL1        0.0363
     35 O          61.5157   81.4482   14.5085 O.3     1  UNL1       -0.4346
     36 C          61.7147   80.4339   13.4214 C.3     1  UNL1        0.4294
     37 O          62.8724   80.8796   12.5780 O.3     1  UNL1       -0.4346
@<TRIPOS>BOND
     1    26    27    1
     2    27    25    1
     3    25    24    1
     4    24    22    1
     5    22     1    1
     6     1     2   ar
     7     2     3   ar
     8     3     4    1
     9     3     5   ar
    10     5     6    1
    11     6     7    2
    12     6     8    1
    13     8     9    2
    14     9    17    1
    15    17    18   ar
    16    18    19   ar
    17    19    20   ar
    18    20    21   ar
    19     9    10    1
    20    10    11    2
    21    11    28    1
    22    28    29    1
    23    29    30   ar
    24    30    31   ar
    25    31    32   ar
    26    32    33   ar
    27    33    34   ar
    28    33    35    1
    29    35    36    1
    30    36    37    1
    31    11    12    1
    32    12    13    1
    33    13    14    1
    34    14    15   ar
    35    15     1   ar
    36    14     5   ar
    37    12     8    1
    38    21    17   ar
    39    34    29   ar
    40    37    32    1
    41    22    23    1
    42     4    16    1
@<TRIPOS>MOLECULE
*****
 37 42 0 0 0
SMALL
GASTEIGER

@<TRIPOS>ATOM
      1 C          60.7266   87.2055    9.1381 C.ar    1  UNL1        0.0508
      2 C          60.8900   88.6945    9.0593 C.ar    1  UNL1        0.0512
      3 C          61.6863   89.4180   10.1045 C.ar    1  UNL1        0.1408
      4 O          61.8497   90.9070   10.0256 O.3     1  UNL1       -0.5053
      5 C          62.3191   88.6525   11.2285 C.ar    1  UNL1        0.1064
      6 C          63.1154   89.3760   12.2738 C.2     1  UNL1        0.2027
      7 O          63.2788   90.8650   12.1950 O.2     1  UNL1       -0.2865
      8 C          63.7483   88.6105   13.3978 C.2     1  UNL1        0.0814
      9 C          64.5835   89.0476   14.5646 C.2     1  UNL1        0.1072
     10 N          64.9363   87.8287   15.3645 N.2     1  UNL1       -0.2478
     11 C          64.3191   86.6383   14.6921 C.2     1  UNL1        0.0851
     12 C          63.5849   87.1215   13.4766 C.3     1  UNL1        0.2287
     13 O          62.7886   86.3980   12.4314 O.3     1  UNL1       -0.4686
     14 C          62.1557   87.1636   11.3073 C.ar    1  UNL1        0.1466
     15 C          61.3595   86.4401   10.2621 C.ar    1  UNL1        0.0515
     16 H          61.4543   91.3852    9.3235 H       1  UNL1        0.2922
     17 C          64.9939   90.4562   14.8766 C.ar    1  UNL1        0.1283
     18 N          64.3444   91.3619   15.8805 N.ar    1  UNL1       -0.2353
     19 C          65.0750   92.6719   15.8639 C.ar    1  UNL1        0.1065
     20 C          66.1759   92.5758   14.8497 C.ar    1  UNL1        0.0576
     21 S          66.1259   91.2064   14.2395 S.2     1  UNL1       -0.0644
     22 N          59.9303   86.4821    8.0928 N.pl3   1  UNL1       -0.3305
     23 H          60.0412   85.5110    7.9741 H       1  UNL1        0.1469
     24 C          58.9652   87.2380    7.2285 C.3     1  UNL1        0.1196
     25 C          58.9991   88.7373    7.2003 C.3     1  UNL1        0.1634
     26 C          58.6848   90.7675    5.6098 C.3     1  UNL1        0.1742
     27 O          59.3394   89.4560    5.9284 O.3     1  UNL1       -0.3493
     28 C          64.4187   85.2147   15.1541 C.3     1  UNL1        0.0717
     29 C          63.8997   84.1067   14.2864 C.ar    1  UNL1       -0.0132
     30 C          62.7429   83.2712   14.7486 C.ar    1  UNL1       -0.0006
     31 C          62.2239   82.1631   13.8810 C.ar    1  UNL1        0.0399
     32 C          62.8618   81.8905   12.5510 C.ar    1  UNL1        0.1764
     33 C          64.0186   82.7260   12.0888 C.ar    1  UNL1        0.1761
     34 C          64.5376   83.8340   12.9564 C.ar    1  UNL1        0.0363
     35 O          64.4414   82.2260   10.7392 O.3     1  UNL1       -0.4346
     36 C          63.5459   81.0815   10.3674 C.3     1  UNL1        0.4294
     37 O          62.5696   80.8742   11.4872 O.3     1  UNL1       -0.4346
@<TRIPOS>BOND
     1    26    27    1
     2    27    25    1
     3    25    24    1
     4    24    22    1
     5    22     1    1
     6     1     2   ar
     7     2     3   ar
     8     3     4    1
     9     3     5   ar
    10     5     6    1
    11     6     7    2
    12     6     8    1
    13     8     9    2
    14     9    17    1
    15    17    18   ar
    16    18    19   ar
    17    19    20   ar
    18    20    21   ar
    19     9    10    1
    20    10    11    2
    21    11    28    1
    22    28    29    1
    23    29    30   ar
    24    30    31   ar
    25    31    32   ar
    26    32    33   ar
    27    33    34   ar
    28    33    35    1
    29    35    36    1
    30    36    37    1
    31    11    12    1
    32    12    13    1
    33    13    14    1
    34    14    15   ar
    35    15     1   ar
    36    14     5   ar
    37    12     8    1
    38    21    17   ar
    39    34    29   ar
    40    37    32    1
    41    22    23    1
    42     4    16    1
@<TRIPOS>MOLECULE
*****
 37 42 0 0 0
SMALL
GASTEIGER

@<TRIPOS>ATOM
      1 C          66.2049   94.0974   12.0011 C.ar    1  UNL1        0.0508
      2 C          66.8756   93.5225   13.2134 C.ar    1  UNL1        0.0512
      3 C          66.4387   92.1926   13.7524 C.ar    1  UNL1        0.1408
      4 O          67.1094   91.6177   14.9648 O.3     1  UNL1       -0.5053
      5 C          65.3311   91.4376   13.0792 C.ar    1  UNL1        0.1064
      6 C          64.8942   90.1078   13.6183 C.2     1  UNL1        0.2027
      7 O          65.5649   89.5329   14.8306 O.2     1  UNL1       -0.2865
      8 C          63.7866   89.3528   12.9451 C.2     1  UNL1        0.0814
      9 C          63.1457   88.0304   13.2460 C.2     1  UNL1        0.1072
     10 N          62.0790   87.7880   12.2197 N.2     1  UNL1       -0.2478
     11 C          62.0605   88.9606   11.2845 C.2     1  UNL1        0.0851
     12 C          63.1158   89.9277   11.7328 C.3     1  UNL1        0.2287
     13 O          63.5527   91.2576   11.1937 O.3     1  UNL1       -0.4686
     14 C          64.6604   92.0125   11.8670 C.ar    1  UNL1        0.1466
     15 C          65.0973   93.3424   11.3279 C.ar    1  UNL1        0.0515
     16 H          67.8013   92.0893   15.3853 H       1  UNL1        0.2922
     17 C          63.5081   87.1117   14.3750 C.ar    1  UNL1        0.1283
     18 N          63.3343   87.4000   15.8368 N.ar    1  UNL1       -0.2353
     19 C          63.8267   86.2098   16.6057 C.ar    1  UNL1        0.1065
     20 C          64.3047   85.1860   15.6192 C.ar    1  UNL1        0.0576
     21 S          64.1079   85.7434   14.2405 S.2     1  UNL1       -0.0644
     22 N          66.6418   95.4272   11.4621 N.pl3   1  UNL1       -0.3305
     23 H          66.9286   96.1384   12.0794 H       1  UNL1        0.1469
     24 C          66.6415   95.6735    9.9824 C.3     1  UNL1        0.1196
     25 C          67.7274   95.0934    9.1254 C.3     1  UNL1        0.1634
     26 C          68.4887   92.6178    9.3301 C.3     1  UNL1        0.1742
     27 O          68.6599   94.0636    9.6912 O.3     1  UNL1       -0.3493
     28 C          61.1471   89.1355   10.1076 C.3     1  UNL1        0.0717
     29 C          60.9146   87.9940    9.1626 C.ar    1  UNL1       -0.0132
     30 C          59.5545   87.7775    8.5683 C.ar    1  UNL1       -0.0006
     31 C          59.3220   86.6360    7.6233 C.ar    1  UNL1        0.0399
     32 C          60.4495   85.7111    7.2725 C.ar    1  UNL1        0.1764
     33 C          61.8097   85.9277    7.8668 C.ar    1  UNL1        0.1761
     34 C          62.0421   87.0691    8.8119 C.ar    1  UNL1        0.0363
     35 O          62.7215   84.8600    7.3390 O.3     1  UNL1       -0.4346
     36 C          61.9249   83.9835    6.4184 C.3     1  UNL1        0.4294
     37 O          60.5207   84.5096    6.3774 O.3     1  UNL1       -0.4346
@<TRIPOS>BOND
     1    26    27    1
     2    27    25    1
     3    25    24    1
     4    24    22    1
     5    22     1    1
     6     1     2   ar
     7     2     3   ar
     8     3     4    1
     9     3     5   ar
    10     5     6    1
    11     6     7    2
    12     6     8    1
    13     8     9    2
    14     9    17    1
    15    17    18   ar
    16    18    19   ar
    17    19    20   ar
    18    20    21   ar
    19     9    10    1
    20    10    11    2
    21    11    28    1
    22    28    29    1
    23    29    30   ar
    24    30    31   ar
    25    31    32   ar
    26    32    33   ar
    27    33    34   ar
    28    33    35    1
    29    35    36    1
    30    36    37    1
    31    11    12    1
    32    12    13    1
    33    13    14    1
    34    14    15   ar
    35    15     1   ar
    36    14     5   ar
    37    12     8    1
    38    21    17   ar
    39    34    29   ar
    40    37    32    1
    41    22    23    1
    42     4    16    1
@<TRIPOS>MOLECULE
*****
 37 42 0 0 0
SMALL
GASTEIGER

@<TRIPOS>ATOM
      1 C          60.5421   92.7268    2.9546 C.ar    1  UNL1        0.0508
      2 C          62.0271   92.6822    2.7480 C.ar    1  UNL1        0.0512
      3 C          62.6032   92.9416    1.3875 C.ar    1  UNL1        0.1408
      4 O          64.0883   92.8969    1.1809 O.3     1  UNL1       -0.5053
      5 C          61.6943   93.2456    0.2337 C.ar    1  UNL1        0.1064
      6 C          62.2704   93.5050   -1.1268 C.2     1  UNL1        0.2027
      7 O          63.7554   93.4604   -1.3334 O.2     1  UNL1       -0.2865
      8 C          61.3615   93.8091   -2.2806 C.2     1  UNL1        0.0814
      9 C          61.6375   94.1047   -3.7250 C.2     1  UNL1        0.1072
     10 N          60.3232   94.3321   -4.4111 N.2     1  UNL1       -0.2478
     11 C          59.2347   94.1770   -3.3908 C.2     1  UNL1        0.0851
     12 C          59.8764   93.8538   -2.0740 C.3     1  UNL1        0.2287
     13 O          59.3003   93.5944   -0.7136 O.3     1  UNL1       -0.4686
     14 C          60.2093   93.2903    0.4403 C.ar    1  UNL1        0.1466
     15 C          59.6332   93.0309    1.8008 C.ar    1  UNL1        0.0515
     16 H          64.6561   92.7070    1.9017 H       1  UNL1        0.2922
     17 C          62.9905   94.1628   -4.3701 C.ar    1  UNL1        0.1283
     18 N          63.8157   92.9846   -4.7956 N.ar    1  UNL1       -0.2353
     19 C          65.0911   93.5029   -5.3914 C.ar    1  UNL1        0.1065
     20 C          65.0541   95.0014   -5.3341 C.ar    1  UNL1        0.0576
     21 S          63.7559   95.4092   -4.7029 S.2     1  UNL1       -0.0644
     22 N          59.9660   92.4674    4.3150 N.pl3   1  UNL1       -0.3305
     23 H          60.4824   92.6990    5.1206 H       1  UNL1        0.1469
     24 C          58.6032   91.8551    4.4481 C.3     1  UNL1        0.1196
     25 C          58.3367   90.8448    5.5244 C.3     1  UNL1        0.1634
     26 C          59.3584   89.1367    7.1943 C.3     1  UNL1        0.1742
     27 O          59.3708   89.8092    5.8536 O.3     1  UNL1       -0.3493
     28 C          57.7630   94.3200   -3.6428 C.3     1  UNL1        0.0717
     29 C          56.9555   93.1290   -4.0665 C.ar    1  UNL1       -0.0132
     30 C          56.6133   92.0617   -3.0696 C.ar    1  UNL1       -0.0006
     31 C          55.8058   90.8707   -3.4933 C.ar    1  UNL1        0.0399
     32 C          55.3404   90.7470   -4.9138 C.ar    1  UNL1        0.1764
     33 C          55.6825   91.8144   -5.9107 C.ar    1  UNL1        0.1761
     34 C          56.4900   93.0053   -5.4870 C.ar    1  UNL1        0.0363
     35 O          55.0892   91.4223   -7.2315 O.3     1  UNL1       -0.4346
     36 C          54.3804   90.1127   -7.0509 C.3     1  UNL1        0.4294
     37 O          54.5357   89.6954   -5.6184 O.3     1  UNL1       -0.4346
@<TRIPOS>BOND
     1    26    27    1
     2    27    25    1
     3    25    24    1
     4    24    22    1
     5    22     1    1
     6     1     2   ar
     7     2     3   ar
     8     3     4    1
     9     3     5   ar
    10     5     6    1
    11     6     7    2
    12     6     8    1
    13     8     9    2
    14     9    17    1
    15    17    18   ar
    16    18    19   ar
    17    19    20   ar
    18    20    21   ar
    19     9    10    1
    20    10    11    2
    21    11    28    1
    22    28    29    1
    23    29    30   ar
    24    30    31   ar
    25    31    32   ar
    26    32    33   ar
    27    33    34   ar
    28    33    35    1
    29    35    36    1
    30    36    37    1
    31    11    12    1
    32    12    13    1
    33    13    14    1
    34    14    15   ar
    35    15     1   ar
    36    14     5   ar
    37    12     8    1
    38    21    17   ar
    39    34    29   ar
    40    37    32    1
    41    22    23    1
    42     4    16    1
@<TRIPOS>MOLECULE
*****
 37 42 0 0 0
SMALL
GASTEIGER

@<TRIPOS>ATOM
      1 C          63.9502   85.0379   15.1501 C.ar    1  UNL1        0.0508
      2 C          63.9191   83.7566   14.3709 C.ar    1  UNL1        0.0512
      3 C          63.4911   83.7632   12.9333 C.ar    1  UNL1        0.1408
      4 O          63.4601   82.4818   12.1541 O.3     1  UNL1       -0.5053
      5 C          63.0941   85.0512   12.2749 C.ar    1  UNL1        0.1064
      6 C          62.6661   85.0578   10.8373 C.2     1  UNL1        0.2027
      7 O          62.6350   83.7765   10.0581 O.2     1  UNL1       -0.2865
      8 C          62.2690   86.3458   10.1789 C.2     1  UNL1        0.0814
      9 C          61.8064   86.6607    8.7872 C.2     1  UNL1        0.1072
     10 N          61.5515   88.1367    8.7064 N.2     1  UNL1       -0.2478
     11 C          61.8566   88.7340   10.0480 C.2     1  UNL1        0.0851
     12 C          62.3001   87.6272   10.9581 C.3     1  UNL1        0.2287
     13 O          62.7281   87.6205   12.3958 O.3     1  UNL1       -0.4686
     14 C          63.1251   86.3325   13.0541 C.ar    1  UNL1        0.1466
     15 C          63.5532   86.3258   14.4918 C.ar    1  UNL1        0.0515
     16 H          63.7081   81.6773   12.5653 H       1  UNL1        0.2922
     17 C          61.6297   85.6731    7.6722 C.ar    1  UNL1        0.1283
     18 N          60.3219   85.2267    7.0887 N.ar    1  UNL1       -0.2353
     19 C          60.6138   84.2361    6.0007 C.ar    1  UNL1        0.1065
     20 C          62.1019   84.0702    5.9118 C.ar    1  UNL1        0.0576
     21 S          62.7299   84.9583    6.9449 S.2     1  UNL1       -0.0644
     22 N          64.3782   85.0312   16.5877 N.pl3   1  UNL1       -0.3305
     23 H          65.2316   84.6134   16.8453 H       1  UNL1        0.1469
     24 C          63.5060   85.6612   17.6329 C.3     1  UNL1        0.1196
     25 C          62.6468   86.8396   17.2820 C.3     1  UNL1        0.1634
     26 C          63.1125   89.2756   16.5080 C.3     1  UNL1        0.1742
     27 O          63.1216   88.2302   17.5837 O.3     1  UNL1       -0.3493
     28 C          61.7389   90.1836   10.4152 C.3     1  UNL1        0.0717
     29 C          62.9121   90.9040   11.0107 C.ar    1  UNL1       -0.0132
     30 C          63.8202   91.7128   10.1325 C.ar    1  UNL1       -0.0006
     31 C          64.9933   92.4332   10.7281 C.ar    1  UNL1        0.0399
     32 C          65.2585   92.3449   12.2018 C.ar    1  UNL1        0.1764
     33 C          64.3504   91.5362   13.0800 C.ar    1  UNL1        0.1761
     34 C          63.1772   90.8157   12.4845 C.ar    1  UNL1        0.0363
     35 O          64.8595   91.6333   14.4876 O.3     1  UNL1       -0.4346
     36 C          66.0822   92.5022   14.4794 C.3     1  UNL1        0.4294
     37 O          66.3288   92.9420   13.0666 O.3     1  UNL1       -0.4346
@<TRIPOS>BOND
     1    26    27    1
     2    27    25    1
     3    25    24    1
     4    24    22    1
     5    22     1    1
     6     1     2   ar
     7     2     3   ar
     8     3     4    1
     9     3     5   ar
    10     5     6    1
    11     6     7    2
    12     6     8    1
    13     8     9    2
    14     9    17    1
    15    17    18   ar
    16    18    19   ar
    17    19    20   ar
    18    20    21   ar
    19     9    10    1
    20    10    11    2
    21    11    28    1
    22    28    29    1
    23    29    30   ar
    24    30    31   ar
    25    31    32   ar
    26    32    33   ar
    27    33    34   ar
    28    33    35    1
    29    35    36    1
    30    36    37    1
    31    11    12    1
    32    12    13    1
    33    13    14    1
    34    14    15   ar
    35    15     1   ar
    36    14     5   ar
    37    12     8    1
    38    21    17   ar
    39    34    29   ar
    40    37    32    1
    41    22    23    1
    42     4    16    1
