@<TRIPOS>MOLECULE
*****
 27 31 0 0 0
SMALL
GASTEIGER

@<TRIPOS>ATOM
      1 C          63.3077   90.1186   12.1870 C.2     1  UNL1        0.0322
      2 C          62.6808   90.8621   11.0451 C.2     1  UNL1        0.2321
      3 N          61.9404   90.1118    9.9779 N.2     1  UNL1       -0.0311
      4 C          61.8270   88.6180   10.0527 C.2     1  UNL1        0.3720
      5 N          61.1644   87.6155    9.1548 N.2     1  UNL1       -0.0308
      6 C          61.3819   86.2524    9.7419 C.2     1  UNL1        0.2355
      7 C          62.1789   86.4125   11.0026 C.2     1  UNL1        0.0469
      8 C          62.4540   87.8745   11.1946 C.2     1  UNL1        0.0740
      9 C          63.1944   88.6248   12.2618 C.3     1  UNL1        0.0646
     10 N          66.2692   93.1198   16.4559 N.pl3   1  UNL1       -0.3274
     11 C          65.5289   92.3695   15.3887 C.ar    1  UNL1        0.2137
     12 N          65.8528   92.6063   13.9433 N.ar    1  UNL1       -0.2125
     13 C          65.1124   91.8560   12.8761 C.ar    1  UNL1        0.1031
     14 C          64.0482   90.8689   13.2542 C.ar    1  UNL1        0.0385
     15 C          63.7243   90.6321   14.6996 C.ar    1  UNL1        0.1031
     16 N          64.4646   91.3824   15.7668 N.ar    1  UNL1       -0.2125
     17 H          66.9678   93.7676   16.2077 H       1  UNL1        0.1452
     18 H          66.0566   92.9643   17.4045 H       1  UNL1        0.1452
     19 C          62.6229   85.3050   11.9116 C.2     1  UNL1       -0.0140
     20 C          63.3182   85.6264   13.2012 C.2     1  UNL1       -0.0023
     21 C          63.7622   84.5189   14.1102 C.2     1  UNL1        0.0185
     22 C          63.5109   83.0899   13.7296 C.2     1  UNL1        0.0777
     23 N          63.8315   81.7965   14.4183 N.2     1  UNL1       -0.2442
     24 C          63.3343   80.6757   13.5542 C.2     1  UNL1        0.0985
     25 C          62.7064   81.2764   12.3316 C.2     1  UNL1        0.0182
     26 C          62.8155   82.7685   12.4400 C.2     1  UNL1        0.0014
     27 C          62.3716   83.8760   11.5310 C.3     1  UNL1        0.0543
@<TRIPOS>BOND
     1    10    11    1
     2    11    12   ar
     3    12    13   ar
     4    13    14   ar
     5    14     1    1
     6     1     2    2
     7     2     3    1
     8     3     4    2
     9     4     5    1
    10     5     6    2
    11     6     7    1
    12     7    19    1
    13    19    20    2
    14    20    21    1
    15    21    22    2
    16    22    23    1
    17    23    24    2
    18    24    25    1
    19    25    26    2
    20    26    27    1
    21     7     8    2
    22     8     9    1
    23    14    15   ar
    24    15    16   ar
    25    16    11   ar
    26     9     1    1
    27     8     4    1
    28    27    19    1
    29    26    22    1
    30    10    17    1
    31    10    18    1
@<TRIPOS>MOLECULE
*****
 27 31 0 0 0
SMALL
GASTEIGER

@<TRIPOS>ATOM
      1 C          65.9008   93.2644   12.3308 C.2     1  UNL1        0.0322
      2 C          66.4158   93.4617   13.7257 C.2     1  UNL1        0.2321
      3 N          65.9324   92.5764   14.8358 N.2     1  UNL1       -0.0311
      4 C          64.9339   91.4939   14.5511 C.2     1  UNL1        0.3720
      5 N          64.2793   90.4743   15.4355 N.2     1  UNL1       -0.0308
      6 C          63.3597   89.6469   14.5871 C.2     1  UNL1        0.2355
      7 C          63.4459   90.1551   13.1785 C.2     1  UNL1        0.0469
      8 C          64.4188   91.2966   13.1562 C.2     1  UNL1        0.0740
      9 C          64.9023   92.1819   12.0461 C.3     1  UNL1        0.0646
     10 N          67.8345   96.8056    7.8899 N.pl3   1  UNL1       -0.3274
     11 C          67.3511   95.9203    9.0001 C.ar    1  UNL1        0.2137
     12 N          67.5487   94.4358    8.9157 N.ar    1  UNL1       -0.2125
     13 C          67.0652   93.5505   10.0259 C.ar    1  UNL1        0.1031
     14 C          66.3842   94.1497   11.2205 C.ar    1  UNL1        0.0385
     15 C          66.1867   95.6343   11.3050 C.ar    1  UNL1        0.1031
     16 N          66.6701   96.5195   10.1948 N.ar    1  UNL1       -0.2125
     17 H          68.2815   96.4123    7.1058 H       1  UNL1        0.1452
     18 H          67.7048   97.7799    7.9454 H       1  UNL1        0.1452
     19 C          62.6917   89.6164   11.9991 C.2     1  UNL1       -0.0140
     20 C          61.8628   90.5379   11.1544 C.2     1  UNL1       -0.0023
     21 C          61.1085   89.9992    9.9750 C.2     1  UNL1        0.0185
     22 C          61.1833   88.5390    9.6403 C.2     1  UNL1        0.0777
     23 N          60.5540   87.7262    8.5479 N.2     1  UNL1       -0.2442
     24 C          60.9941   86.3022    8.7175 C.2     1  UNL1        0.0985
     25 C          61.8953   86.2350    9.9147 C.2     1  UNL1        0.0182
     26 C          62.0122   87.6175   10.4850 C.2     1  UNL1        0.0014
     27 C          62.7665   88.1562   11.6644 C.3     1  UNL1        0.0543
@<TRIPOS>BOND
     1    10    11    1
     2    11    12   ar
     3    12    13   ar
     4    13    14   ar
     5    14     1    1
     6     1     2    2
     7     2     3    1
     8     3     4    2
     9     4     5    1
    10     5     6    2
    11     6     7    1
    12     7    19    1
    13    19    20    2
    14    20    21    1
    15    21    22    2
    16    22    23    1
    17    23    24    2
    18    24    25    1
    19    25    26    2
    20    26    27    1
    21     7     8    2
    22     8     9    1
    23    14    15   ar
    24    15    16   ar
    25    16    11   ar
    26     9     1    1
    27     8     4    1
    28    27    19    1
    29    26    22    1
    30    10    17    1
    31    10    18    1
@<TRIPOS>MOLECULE
*****
 27 31 0 0 0
SMALL
GASTEIGER

@<TRIPOS>ATOM
      1 C          62.2346   85.8290   11.4295 C.2     1  UNL1        0.0322
      2 C          61.2873   85.7675   10.2681 C.2     1  UNL1        0.2321
      3 N          60.8950   87.0262    9.5528 N.2     1  UNL1       -0.0311
      4 C          61.4498   88.3465    9.9990 C.2     1  UNL1        0.3720
      5 N          61.2463   89.7436    9.4923 N.2     1  UNL1       -0.0308
      6 C          62.0677   90.6686   10.3406 C.2     1  UNL1        0.2355
      7 C          62.7789   89.8431   11.3715 C.2     1  UNL1        0.0469
      8 C          62.3970   88.4080   11.1604 C.2     1  UNL1        0.0740
      9 C          62.7894   87.1493   11.8756 C.3     1  UNL1        0.0646
     10 N          63.8042   80.7942   14.2908 N.pl3   1  UNL1       -0.3274
     11 C          63.4118   82.0528   13.5754 C.ar    1  UNL1        0.2137
     12 N          63.3495   82.0756   12.0769 N.ar    1  UNL1       -0.2125
     13 C          62.9570   83.3343   11.3616 C.ar    1  UNL1        0.1031
     14 C          62.6270   84.5703   12.1448 C.ar    1  UNL1        0.0385
     15 C          62.6894   84.5475   13.6433 C.ar    1  UNL1        0.1031
     16 N          63.0818   83.2889   14.3587 N.ar    1  UNL1       -0.2125
     17 H          64.0209   79.9829   13.7767 H       1  UNL1        0.1452
     18 H          63.8452   80.7793   15.2743 H       1  UNL1        0.1452
     19 C          63.7088   90.3617   12.4281 C.2     1  UNL1       -0.0140
     20 C          63.8441   89.6325   13.7318 C.2     1  UNL1       -0.0023
     21 C          64.7739   90.1511   14.7884 C.2     1  UNL1        0.0185
     22 C          65.5686   91.3990   14.5412 C.2     1  UNL1        0.0777
     23 N          66.5573   92.1436   15.3885 N.2     1  UNL1       -0.2442
     24 C          67.0332   93.3332   14.6084 C.2     1  UNL1        0.0985
     25 C          66.3386   93.3237   13.2790 C.2     1  UNL1        0.0182
     26 C          65.4334   92.1283   13.2375 C.2     1  UNL1        0.0014
     27 C          64.5035   91.6097   12.1809 C.3     1  UNL1        0.0543
@<TRIPOS>BOND
     1    10    11    1
     2    11    12   ar
     3    12    13   ar
     4    13    14   ar
     5    14     1    1
     6     1     2    2
     7     2     3    1
     8     3     4    2
     9     4     5    1
    10     5     6    2
    11     6     7    1
    12     7    19    1
    13    19    20    2
    14    20    21    1
    15    21    22    2
    16    22    23    1
    17    23    24    2
    18    24    25    1
    19    25    26    2
    20    26    27    1
    21     7     8    2
    22     8     9    1
    23    14    15   ar
    24    15    16   ar
    25    16    11   ar
    26     9     1    1
    27     8     4    1
    28    27    19    1
    29    26    22    1
    30    10    17    1
    31    10    18    1
@<TRIPOS>MOLECULE
*****
 27 31 0 0 0
SMALL
GASTEIGER

@<TRIPOS>ATOM
      1 C          62.8187   89.9791   12.3355 C.2     1  UNL1        0.0322
      2 C          62.6027   89.6152   13.7746 C.2     1  UNL1        0.2321
      3 N          63.4375   90.2557   14.8436 N.2     1  UNL1       -0.0311
      4 C          64.4883   91.2601   14.4736 C.2     1  UNL1        0.3720
      5 N          65.4570   92.0509   15.3022 N.2     1  UNL1       -0.0308
      6 C          66.2716   92.9035   14.3752 C.2     1  UNL1        0.2355
      7 C          65.8065   92.6397   12.9737 C.2     1  UNL1        0.0469
      8 C          64.7044   91.6240   13.0345 C.2     1  UNL1        0.0740
      9 C          63.8696   90.9835   11.9655 C.3     1  UNL1        0.0646
     10 N          59.4795   87.4172    8.0592 N.pl3   1  UNL1       -0.3274
     11 C          60.3143   88.0576    9.1283 C.ar    1  UNL1        0.2137
     12 N          61.3597   87.2554    9.8449 N.ar    1  UNL1       -0.2125
     13 C          62.1945   87.8959   10.9141 C.ar    1  UNL1        0.1031
     14 C          61.9839   89.3386   11.2664 C.ar    1  UNL1        0.0385
     15 C          60.9386   90.1409   10.5498 C.ar    1  UNL1        0.1031
     16 N          60.1038   89.5004    9.4807 N.ar    1  UNL1       -0.2125
     17 H          59.6177   86.4703    7.8279 H       1  UNL1        0.1452
     18 H          58.7935   87.9438    7.5888 H       1  UNL1        0.1452
     19 C          66.3483   93.2792   11.7298 C.2     1  UNL1       -0.0140
     20 C          67.1210   92.4587   10.7400 C.2     1  UNL1       -0.0023
     21 C          67.6628   93.0983    9.4961 C.2     1  UNL1        0.0185
     22 C          67.4321   94.5585    9.2419 C.2     1  UNL1        0.0777
     23 N          67.8416   95.4578    8.1135 N.2     1  UNL1       -0.2442
     24 C          67.3221   96.8342    8.4059 C.2     1  UNL1        0.0985
     25 C          66.5915   96.7856    9.7150 C.2     1  UNL1        0.0182
     26 C          66.6594   95.3790   10.2317 C.2     1  UNL1        0.0014
     27 C          66.1176   94.7394   11.4756 C.3     1  UNL1        0.0543
@<TRIPOS>BOND
     1    10    11    1
     2    11    12   ar
     3    12    13   ar
     4    13    14   ar
     5    14     1    1
     6     1     2    2
     7     2     3    1
     8     3     4    2
     9     4     5    1
    10     5     6    2
    11     6     7    1
    12     7    19    1
    13    19    20    2
    14    20    21    1
    15    21    22    2
    16    22    23    1
    17    23    24    2
    18    24    25    1
    19    25    26    2
    20    26    27    1
    21     7     8    2
    22     8     9    1
    23    14    15   ar
    24    15    16   ar
    25    16    11   ar
    26     9     1    1
    27     8     4    1
    28    27    19    1
    29    26    22    1
    30    10    17    1
    31    10    18    1
@<TRIPOS>MOLECULE
*****
 27 31 0 0 0
SMALL
GASTEIGER

@<TRIPOS>ATOM
      1 C          62.1747   85.6237   10.5601 C.2     1  UNL1        0.0322
      2 C          62.5797   84.2316   10.1756 C.2     1  UNL1        0.2321
      3 N          63.4134   83.4076   11.1116 N.2     1  UNL1       -0.0311
      4 C          63.8421   83.9758   12.4319 C.2     1  UNL1        0.3720
      5 N          64.6605   83.4051   13.5521 N.2     1  UNL1       -0.0308
      6 C          64.7612   84.4445   14.6288 C.2     1  UNL1        0.2355
      7 C          64.0050   85.6576   14.1742 C.2     1  UNL1        0.0469
      8 C          63.4370   85.3679   12.8164 C.2     1  UNL1        0.0740
      9 C          62.6033   86.1919   11.8805 C.3     1  UNL1        0.0646
     10 N          58.8397   88.9199    6.8166 N.pl3   1  UNL1       -0.3274
     11 C          59.6734   88.0959    7.7524 C.ar    1  UNL1        0.2137
     12 N          59.8400   86.6248    7.5109 N.ar    1  UNL1       -0.2125
     13 C          60.6737   85.8008    8.4468 C.ar    1  UNL1        0.1031
     14 C          61.3409   86.4478    9.6242 C.ar    1  UNL1        0.0385
     15 C          61.1743   87.9188    9.8657 C.ar    1  UNL1        0.1031
     16 N          60.3407   88.7428    8.9299 N.ar    1  UNL1       -0.2125
     17 H          58.4019   88.4953    6.0438 H       1  UNL1        0.1452
     18 H          58.7304   89.8854    6.9751 H       1  UNL1        0.1452
     19 C          63.8450   86.9360   14.9423 C.2     1  UNL1       -0.0140
     20 C          63.2023   86.9213   16.2975 C.2     1  UNL1       -0.0023
     21 C          63.0422   88.1996   17.0657 C.2     1  UNL1        0.0185
     22 C          63.5250   89.4928   16.4787 C.2     1  UNL1        0.0777
     23 N          63.5036   90.9003   16.9970 N.2     1  UNL1       -0.2442
     24 C          64.1331   91.7849   15.9621 C.2     1  UNL1        0.0985
     25 C          64.5436   90.9242   14.8042 C.2     1  UNL1        0.0182
     26 C          64.1678   89.5076   15.1235 C.2     1  UNL1        0.0014
     27 C          64.3278   88.2292   14.3553 C.3     1  UNL1        0.0543
@<TRIPOS>BOND
     1    10    11    1
     2    11    12   ar
     3    12    13   ar
     4    13    14   ar
     5    14     1    1
     6     1     2    2
     7     2     3    1
     8     3     4    2
     9     4     5    1
    10     5     6    2
    11     6     7    1
    12     7    19    1
    13    19    20    2
    14    20    21    1
    15    21    22    2
    16    22    23    1
    17    23    24    2
    18    24    25    1
    19    25    26    2
    20    26    27    1
    21     7     8    2
    22     8     9    1
    23    14    15   ar
    24    15    16   ar
    25    16    11   ar
    26     9     1    1
    27     8     4    1
    28    27    19    1
    29    26    22    1
    30    10    17    1
    31    10    18    1
@<TRIPOS>MOLECULE
*****
 27 31 0 0 0
SMALL
GASTEIGER

@<TRIPOS>ATOM
      1 C          62.4561   89.8691   10.4075 C.2     1  UNL1        0.0322
      2 C          63.0525   91.0967    9.7852 C.2     1  UNL1        0.2321
      3 N          63.9819   91.9647   10.5806 N.2     1  UNL1       -0.0311
      4 C          64.3150   91.6051   11.9983 C.2     1  UNL1        0.3720
      5 N          65.1926   92.2636   13.0212 N.2     1  UNL1       -0.0308
      6 C          65.1385   91.4430   14.2756 C.2     1  UNL1        0.2355
      7 C          64.2276   90.2773   14.0280 C.2     1  UNL1        0.0469
      8 C          63.7186   90.3775   12.6206 C.2     1  UNL1        0.0740
      9 C          62.7892   89.5095   11.8252 C.3     1  UNL1        0.0646
     10 N          58.7383   86.3968    7.2261 N.pl3   1  UNL1       -0.3274
     11 C          59.6677   87.2649    8.0214 C.ar    1  UNL1        0.2137
     12 N          59.5017   88.7556    8.0029 N.ar    1  UNL1       -0.2125
     13 C          60.4312   89.6236    8.7983 C.ar    1  UNL1        0.1031
     14 C          61.5266   89.0010    9.6121 C.ar    1  UNL1        0.0385
     15 C          61.6926   87.5103    9.6306 C.ar    1  UNL1        0.1031
     16 N          60.7632   86.6423    8.8353 N.ar    1  UNL1       -0.2125
     17 H          58.0193   86.8055    6.6919 H       1  UNL1        0.1452
     18 H          58.8472   85.4185    7.2382 H       1  UNL1        0.1452
     19 C          63.8856   89.2004   15.0146 C.2     1  UNL1       -0.0140
     20 C          63.3005   89.5626   16.3474 C.2     1  UNL1       -0.0023
     21 C          62.9586   88.4858   17.3341 C.2     1  UNL1        0.0185
     22 C          63.2017   87.0467   16.9879 C.2     1  UNL1        0.0777
     23 N          62.9666   85.7771   17.7514 N.2     1  UNL1       -0.2442
     24 C          63.4064   84.6303   16.8904 C.2     1  UNL1        0.0985
     25 C          63.9133   85.1910   15.5948 C.2     1  UNL1        0.0182
     26 C          63.7867   86.6845   15.6551 C.2     1  UNL1        0.0014
     27 C          64.1287   87.7613   14.6684 C.3     1  UNL1        0.0543
@<TRIPOS>BOND
     1    10    11    1
     2    11    12   ar
     3    12    13   ar
     4    13    14   ar
     5    14     1    1
     6     1     2    2
     7     2     3    1
     8     3     4    2
     9     4     5    1
    10     5     6    2
    11     6     7    1
    12     7    19    1
    13    19    20    2
    14    20    21    1
    15    21    22    2
    16    22    23    1
    17    23    24    2
    18    24    25    1
    19    25    26    2
    20    26    27    1
    21     7     8    2
    22     8     9    1
    23    14    15   ar
    24    15    16   ar
    25    16    11   ar
    26     9     1    1
    27     8     4    1
    28    27    19    1
    29    26    22    1
    30    10    17    1
    31    10    18    1
@<TRIPOS>MOLECULE
*****
 27 31 0 0 0
SMALL
GASTEIGER

@<TRIPOS>ATOM
      1 C          63.6850   85.1899   13.8234 C.2     1  UNL1        0.0322
      2 C          64.6119   85.6782   14.8968 C.2     1  UNL1        0.2321
      3 N          64.9183   87.1419   15.0143 N.2     1  UNL1       -0.0311
      4 C          64.2978   88.1171   14.0583 C.2     1  UNL1        0.3720
      5 N          64.4119   89.6073   13.9297 N.2     1  UNL1       -0.0308
      6 C          63.5554   90.0399   12.7767 C.2     1  UNL1        0.2355
      7 C          62.9121   88.8171   12.1929 C.2     1  UNL1        0.0469
      8 C          63.3709   87.6288   12.9849 C.2     1  UNL1        0.0740
      9 C          63.0645   86.1652   12.8674 C.3     1  UNL1        0.0646
     10 N          62.4590   79.3353   13.3534 N.pl3   1  UNL1       -0.3274
     11 C          62.7655   80.7989   13.4708 C.ar    1  UNL1        0.2137
     12 N          63.7290   81.4423   12.5181 N.ar    1  UNL1       -0.2125
     13 C          64.0354   82.9060   12.6356 C.ar    1  UNL1        0.1031
     14 C          63.3785   83.7262   13.7058 C.ar    1  UNL1        0.0385
     15 C          62.4150   83.0828   14.6586 C.ar    1  UNL1        0.1031
     16 N          62.1085   81.6192   14.5412 N.ar    1  UNL1       -0.2125
     17 H          62.8902   78.7969   12.6509 H       1  UNL1        0.1452
     18 H          61.8266   78.9130   13.9787 H       1  UNL1        0.1452
     19 C          61.9744   88.7878   11.0224 C.2     1  UNL1       -0.0140
     20 C          61.4112   90.0679   10.4802 C.2     1  UNL1       -0.0023
     21 C          60.4736   90.0386    9.3098 C.2     1  UNL1        0.0185
     22 C          60.0992   88.7290    8.6814 C.2     1  UNL1        0.0777
     23 N          59.2047   88.3894    7.5262 N.2     1  UNL1       -0.2442
     24 C          59.2151   86.8993    7.3543 C.2     1  UNL1        0.0985
     25 C          60.1160   86.3180    8.4033 C.2     1  UNL1        0.0182
     26 C          60.6624   87.4488    9.2235 C.2     1  UNL1        0.0014
     27 C          61.6000   87.4782   10.3940 C.3     1  UNL1        0.0543
@<TRIPOS>BOND
     1    10    11    1
     2    11    12   ar
     3    12    13   ar
     4    13    14   ar
     5    14     1    1
     6     1     2    2
     7     2     3    1
     8     3     4    2
     9     4     5    1
    10     5     6    2
    11     6     7    1
    12     7    19    1
    13    19    20    2
    14    20    21    1
    15    21    22    2
    16    22    23    1
    17    23    24    2
    18    24    25    1
    19    25    26    2
    20    26    27    1
    21     7     8    2
    22     8     9    1
    23    14    15   ar
    24    15    16   ar
    25    16    11   ar
    26     9     1    1
    27     8     4    1
    28    27    19    1
    29    26    22    1
    30    10    17    1
    31    10    18    1
@<TRIPOS>MOLECULE
*****
 27 31 0 0 0
SMALL
GASTEIGER

@<TRIPOS>ATOM
      1 C          62.0601   85.8519   10.7547 C.2     1  UNL1        0.0322
      2 C          62.4154   84.4192   10.4878 C.2     1  UNL1        0.2321
      3 N          63.2693   83.6642   11.4628 N.2     1  UNL1       -0.0311
      4 C          63.7679   84.3418   12.7047 C.2     1  UNL1        0.3720
      5 N          64.6204   83.8565   13.8395 N.2     1  UNL1       -0.0308
      6 C          64.7919   84.9892   14.8077 C.2     1  UNL1        0.2355
      7 C          64.0454   86.1746   14.2713 C.2     1  UNL1        0.0469
      8 C          63.4126   85.7744   12.9716 C.2     1  UNL1        0.0740
      9 C          62.5587   86.5295   11.9966 C.3     1  UNL1        0.0646
     10 N          58.6443   88.8722    6.8546 N.pl3   1  UNL1       -0.3274
     11 C          59.4982   88.1172    7.8296 C.ar    1  UNL1        0.2137
     12 N          60.0756   88.8202    9.0222 N.ar    1  UNL1       -0.2125
     13 C          60.9296   88.0651    9.9972 C.ar    1  UNL1        0.1031
     14 C          61.2061   86.6070    9.7796 C.ar    1  UNL1        0.0385
     15 C          60.6287   85.9039    8.5870 C.ar    1  UNL1        0.1031
     16 N          59.7748   86.6590    7.6120 N.ar    1  UNL1       -0.2125
     17 H          58.4628   89.8292    6.9974 H       1  UNL1        0.1452
     18 H          58.2654   88.4107    6.0718 H       1  UNL1        0.1452
     19 C          63.9488   87.5233   14.9206 C.2     1  UNL1       -0.0140
     20 C          63.0821   87.7131   16.1300 C.2     1  UNL1       -0.0023
     21 C          62.9854   89.0618   16.7793 C.2     1  UNL1        0.0185
     22 C          63.7555   90.2208   16.2192 C.2     1  UNL1        0.0777
     23 N          63.8575   91.6564   16.6419 N.2     1  UNL1       -0.2442
     24 C          64.7873   92.3538   15.6937 C.2     1  UNL1        0.0985
     25 C          65.2600   91.3493   14.6850 C.2     1  UNL1        0.0182
     26 C          64.6223   90.0310   15.0098 C.2     1  UNL1        0.0014
     27 C          64.7189   88.6822   14.3605 C.3     1  UNL1        0.0543
@<TRIPOS>BOND
     1    10    11    1
     2    11    12   ar
     3    12    13   ar
     4    13    14   ar
     5    14     1    1
     6     1     2    2
     7     2     3    1
     8     3     4    2
     9     4     5    1
    10     5     6    2
    11     6     7    1
    12     7    19    1
    13    19    20    2
    14    20    21    1
    15    21    22    2
    16    22    23    1
    17    23    24    2
    18    24    25    1
    19    25    26    2
    20    26    27    1
    21     7     8    2
    22     8     9    1
    23    14    15   ar
    24    15    16   ar
    25    16    11   ar
    26     9     1    1
    27     8     4    1
    28    27    19    1
    29    26    22    1
    30    10    17    1
    31    10    18    1
@<TRIPOS>MOLECULE
*****
 27 31 0 0 0
SMALL
GASTEIGER

@<TRIPOS>ATOM
      1 C          62.2928   87.4987   11.4553 C.2     1  UNL1        0.0322
      2 C          62.8959   88.6275   12.2376 C.2     1  UNL1        0.2321
      3 N          63.7642   88.3368   13.4256 N.2     1  UNL1       -0.0311
      4 C          64.0295   86.9173   13.8313 C.2     1  UNL1        0.3720
      5 N          64.8384   86.3271   14.9482 N.2     1  UNL1       -0.0308
      6 C          64.7352   84.8335   14.8562 C.2     1  UNL1        0.2355
      7 C          63.8625   84.5006   13.6824 C.2     1  UNL1        0.0469
      8 C          63.4264   85.7885   13.0490 C.2     1  UNL1        0.0740
      9 C          62.5580   86.0792   11.8610 C.3     1  UNL1        0.0646
     10 N          58.8192   88.6613    6.7031 N.pl3   1  UNL1       -0.3274
     11 C          59.6876   88.3707    7.8911 C.ar    1  UNL1        0.2137
     12 N          60.0677   89.4764    8.8307 N.ar    1  UNL1       -0.2125
     13 C          60.9361   89.1858   10.0188 C.ar    1  UNL1        0.1031
     14 C          61.4244   87.7894   10.2672 C.ar    1  UNL1        0.0385
     15 C          61.0442   86.6837    9.3276 C.ar    1  UNL1        0.1031
     16 N          60.1759   86.9743    8.1396 N.ar    1  UNL1       -0.2125
     17 H          58.4988   89.5778    6.5400 H       1  UNL1        0.1452
     18 H          58.5697   87.9356    6.0864 H       1  UNL1        0.1452
     19 C          63.4912   83.1220   13.2227 C.2     1  UNL1       -0.0140
     20 C          62.9837   82.1133   14.2102 C.2     1  UNL1       -0.0023
     21 C          62.6124   80.7347   13.7505 C.2     1  UNL1        0.0185
     22 C          62.7485   80.3646   12.3032 C.2     1  UNL1        0.0777
     23 N          62.4625   79.0927   11.5613 N.2     1  UNL1       -0.2442
     24 C          62.7932   79.3152   10.1153 C.2     1  UNL1        0.0985
     25 C          63.2836   80.7246    9.9635 C.2     1  UNL1        0.0182
     26 C          63.2559   81.3732   11.3158 C.2     1  UNL1        0.0014
     27 C          63.6273   82.7518   11.7755 C.3     1  UNL1        0.0543
@<TRIPOS>BOND
     1    10    11    1
     2    11    12   ar
     3    12    13   ar
     4    13    14   ar
     5    14     1    1
     6     1     2    2
     7     2     3    1
     8     3     4    2
     9     4     5    1
    10     5     6    2
    11     6     7    1
    12     7    19    1
    13    19    20    2
    14    20    21    1
    15    21    22    2
    16    22    23    1
    17    23    24    2
    18    24    25    1
    19    25    26    2
    20    26    27    1
    21     7     8    2
    22     8     9    1
    23    14    15   ar
    24    15    16   ar
    25    16    11   ar
    26     9     1    1
    27     8     4    1
    28    27    19    1
    29    26    22    1
    30    10    17    1
    31    10    18    1
