@<TRIPOS>MOLECULE
*****
 58 61 0 0 0
SMALL
GASTEIGER

@<TRIPOS>ATOM
      1 C          63.0746   89.0146   12.9843 C.3     1  UNL1        0.1448
      2 C          62.8604   88.8426   11.5096 C.3     1  UNL1        0.0575
      3 C          62.6342   90.2488   11.0390 C.3     1  UNL1        0.0051
      4 C          62.7467   88.0448   10.2445 C.3     1  UNL1        0.1306
      5 C          62.7562   86.7792    9.4395 C.3     1  UNL1        0.1263
      6 C          62.5339   86.8983    8.1132 C.3     1  UNL1        0.0142
      7 C          62.8870   85.2964    9.2538 C.2     1  UNL1        0.3188
      8 O          62.6727   85.1244    7.7792 O.2     1  UNL1       -0.2500
      9 O          63.1131   83.8902    9.7245 O.3     1  UNL1       -0.4497
     10 C          63.3898   82.8391   10.7584 C.3     1  UNL1        0.1953
     11 C          63.6623   82.3513   12.1503 C.3     1  UNL1        0.1497
     12 C          63.9110   81.0350   12.8252 C.3     1  UNL1        0.0356
     13 O          63.6297   81.2175   11.1689 O.3     1  UNL1       -0.3808
     14 C          63.8766   82.5233   13.6250 C.3     1  UNL1        0.1451
     15 O          64.1027   81.1171   14.0957 O.3     1  UNL1       -0.3815
     16 C          63.9902   83.3211   14.8901 C.3     1  UNL1        0.0869
     17 C          64.2669   82.2701   15.9238 C.3     1  UNL1        0.0104
     18 C          63.9807   84.5867   15.6951 C.2     1  UNL1        0.1523
     19 O          64.2532   84.0989   17.0872 O.2     1  UNL1       -0.2960
     20 C          63.8500   86.0695   15.8808 C.3     1  UNL1        0.0601
     21 C          64.0642   86.2415   17.3554 C.3     1  UNL1        0.0078
     22 C          63.6238   87.4756   15.4101 C.3     1  UNL1        0.0370
     23 C          63.3471   88.5268   14.3763 C.3     1  UNL1        0.1183
     24 C          63.1806   90.0170   14.3407 C.3     1  UNL1        0.0321
     25 H          63.4520   81.5639   10.2804 H       1  UNL1        0.2105
     26 H          64.7922   80.7019   13.5543 H       1  UNL1        0.2105
     27 C          63.3993   81.5735    9.9532 C.3     1  UNL1        0.0462
     28 C          62.5627   80.4050   10.3828 C.3     1  UNL1        0.0039
     29 O          63.4979   89.1277   15.7423 O.3     1  UNL1       -0.3535
     30 C          63.1891   88.9606   16.4580 C.3     1  UNL1        0.1740
     31 O          62.9439   90.4973   13.1698 O.3     1  UNL1       -0.3278
     32 N          68.3295   92.1508   11.3405 N.2     1  UNL1       -0.2243
     33 C          67.2932   92.0906   12.4234 C.2     1  UNL1        0.2833
     34 O          65.9328   91.4692   12.3084 O.2     1  UNL1       -0.4466
     35 C          65.2343   91.6359   13.6253 C.3     1  UNL1        0.2426
     36 C          63.8726   91.2217   14.0987 C.3     1  UNL1        0.2785
     37 O          63.4396   91.5318   15.5009 O.3     1  UNL1       -0.3302
     38 C          64.3683   92.2562   16.4298 C.3     1  UNL1        0.1198
     39 C          63.9352   92.5664   17.8321 C.3     1  UNL1        0.0322
     40 C          65.7299   92.6704   15.9564 C.3     1  UNL1        0.0534
     41 C          66.1631   92.3603   14.5542 C.3     1  UNL1        0.1245
     42 N          67.4355   92.6413   13.8114 N.pl3   1  UNL1       -0.2603
     43 C          68.6390   93.3488   14.3600 C.3     1  UNL1        0.1166
     44 C          68.5597   92.2191    8.7535 C.3     1  UNL1        0.0285
     45 C          68.0433   91.5534    9.9946 C.3     1  UNL1        0.1301
     46 O          62.4700   89.0958    9.2108 O.3     1  UNL1       -0.3323
     47 C          61.1985   89.0501    8.4164 C.3     1  UNL1        0.2375
     48 C          60.9276   90.0940    7.3739 C.3     1  UNL1        0.0910
     49 C          59.6559   90.0483    6.5794 C.3     1  UNL1        0.1246
     50 C          58.6052   90.4266    5.5781 C.3     1  UNL1        0.0324
     51 C          58.6554   88.9586    6.8275 C.3     1  UNL1        0.1623
     52 O          57.3839   88.9129    6.0331 O.3     1  UNL1       -0.3796
     53 C          58.9264   87.9148    7.8700 C.3     1  UNL1        0.1468
     54 C          57.9258   86.8251    8.1181 C.3     1  UNL1        0.0348
     55 O          60.1979   87.9605    8.6644 O.3     1  UNL1       -0.3304
     56 H          57.3667   89.6541    5.4076 H       1  UNL1        0.2105
     57 O          60.2916   91.2693    5.9836 O.3     1  UNL1       -0.3532
     58 C          59.6703   91.9316    4.7896 C.3     1  UNL1        0.1740
@<TRIPOS>BOND
     1    44    45    1
     2    45    32    1
     3    32    33    2
     4    33    34    1
     5    35    34    1
     6    35    36    1
     7    36    31    1
     8     1    31    1
     9     1     2    1
    10     2     3    1
    11     2     4    1
    12     4    46    1
    13    47    46    1
    14    47    48    1
    15    48    49    1
    16    49    50    1
    17    49    57    1
    18    57    58    1
    19    49    51    1
    20    51    52    1
    21    51    53    1
    22    53    54    1
    23    53    55    1
    24     4     5    1
    25     5     6    1
    26     5     7    1
    27     7     8    2
    28     7     9    1
    29     9    10    1
    30    10    27    1
    31    27    28    1
    32    10    11    1
    33    11    12    1
    34    11    13    1
    35    11    14    1
    36    14    15    1
    37    14    16    1
    38    16    17    1
    39    16    18    1
    40    18    19    2
    41    18    20    1
    42    20    21    1
    43    20    22    1
    44    22    23    1
    45    23    24    1
    46    23    29    1
    47    29    30    1
    48    36    37    1
    49    37    38    1
    50    38    39    1
    51    38    40    1
    52    41    40    1
    53    41    42    1
    54    42    43    1
    55    42    33    1
    56    41    35    1
    57    23     1    1
    58    55    47    1
    59    52    56    1
    60    13    25    1
    61    15    26    1
@<TRIPOS>MOLECULE
*****
 58 61 0 0 0
SMALL
GASTEIGER

@<TRIPOS>ATOM
      1 C          62.9997   89.7865   12.3913 C.3     1  UNL1        0.1448
      2 C          62.8195   89.2485   11.0027 C.3     1  UNL1        0.0575
      3 C          62.8246   90.4897   10.1605 C.3     1  UNL1        0.0051
      4 C          62.6371   88.1580    9.9890 C.3     1  UNL1        0.1306
      5 C          62.4885   86.7312    9.5509 C.3     1  UNL1        0.1263
      6 C          62.3382   86.5121    8.2272 C.3     1  UNL1        0.0142
      7 C          62.4033   85.2504    9.7750 C.2     1  UNL1        0.3188
      8 O          62.2231   84.7124    8.3865 O.2     1  UNL1       -0.2500
      9 O          62.3982   84.0092   10.6172 O.3     1  UNL1       -0.4497
     10 C          62.4744   83.2532   11.9106 C.3     1  UNL1        0.1953
     11 C          62.6167   83.1323   13.3989 C.3     1  UNL1        0.1497
     12 C          62.6394   82.0294   14.4153 C.3     1  UNL1        0.0356
     13 O          62.4531   81.7884   12.7531 O.3     1  UNL1       -0.3808
     14 C          62.7969   83.6703   14.7875 C.3     1  UNL1        0.1451
     15 O          62.7918   82.4290   15.6297 O.3     1  UNL1       -0.3815
     16 C          62.9793   84.7607   15.8012 C.3     1  UNL1        0.0869
     17 C          63.0554   84.0048   17.0945 C.3     1  UNL1        0.0104
     18 C          63.1278   86.1875   16.2393 C.2     1  UNL1        0.1523
     19 O          63.2701   86.0667   17.7277 O.2     1  UNL1       -0.2960
     20 C          63.2131   87.6683   16.0152 C.3     1  UNL1        0.0601
     21 C          63.3933   88.2063   17.4037 C.3     1  UNL1        0.0078
     22 C          63.2181   88.9096   15.1730 C.3     1  UNL1        0.0370
     23 C          63.1420   89.6655   13.8796 C.3     1  UNL1        0.1183
     24 C          63.2016   91.0978   13.4380 C.3     1  UNL1        0.0321
     25 H          62.3638   81.8995   11.7936 H       1  UNL1        0.2105
     26 H          63.4320   81.7936   15.2729 H       1  UNL1        0.2105
     27 C          62.3258   81.8263   11.4724 C.3     1  UNL1        0.0462
     28 C          63.3665   81.1997   10.5925 C.3     1  UNL1        0.0039
     29 O          63.3278   90.5910   15.0453 O.3     1  UNL1       -0.3535
     30 C          63.0633   90.5944   15.7973 C.3     1  UNL1        0.1740
     31 O          63.0849   91.2671   12.1671 O.3     1  UNL1       -0.3278
     32 N          66.2501   92.9104   16.8965 N.2     1  UNL1       -0.2243
     33 C          66.1062   92.8135   15.4064 C.2     1  UNL1        0.2833
     34 O          64.9394   92.2253   14.6697 O.2     1  UNL1       -0.4466
     35 C          65.2159   92.3361   13.1997 C.3     1  UNL1        0.2426
     36 C          64.4225   91.9239   11.9952 C.3     1  UNL1        0.2785
     37 O          64.9667   92.1684   10.6190 O.3     1  UNL1       -0.3302
     38 C          66.3043   92.8252   10.4472 C.3     1  UNL1        0.1198
     39 C          66.8485   93.0697    9.0709 C.3     1  UNL1        0.0322
     40 C          67.0977   93.2374   11.6515 C.3     1  UNL1        0.0534
     41 C          66.5536   92.9929   13.0278 C.3     1  UNL1        0.1245
     42 N          67.1037   93.2879   14.3917 N.pl3   1  UNL1       -0.2603
     43 C          68.4203   93.9425   14.6887 C.3     1  UNL1        0.1166
     44 C          63.7822   92.9684   17.7064 C.3     1  UNL1        0.0285
     45 C          65.1636   92.3900   17.7903 C.3     1  UNL1        0.1301
     46 O          62.5609   88.9139    8.6957 O.3     1  UNL1       -0.3323
     47 C          61.2528   89.0305    7.9710 C.3     1  UNL1        0.2375
     48 C          61.0459   90.1270    6.9685 C.3     1  UNL1        0.0910
     49 C          59.7377   90.2436    6.2438 C.3     1  UNL1        0.1246
     50 C          58.6850   90.7631    5.3100 C.3     1  UNL1        0.0324
     51 C          58.6365   89.2636    6.5216 C.3     1  UNL1        0.1623
     52 O          57.3284   89.3802    5.7969 O.3     1  UNL1       -0.3796
     53 C          58.8434   88.1672    7.5241 C.3     1  UNL1        0.1468
     54 C          57.7422   87.1873    7.8019 C.3     1  UNL1        0.0348
     55 O          60.1516   88.0507    8.2488 O.3     1  UNL1       -0.3304
     56 H          57.3612   90.1362    5.1901 H       1  UNL1        0.2105
     57 O          60.4733   91.4039    5.6417 O.3     1  UNL1       -0.3532
     58 C          59.9163   92.1010    4.4360 C.3     1  UNL1        0.1740
@<TRIPOS>BOND
     1    44    45    1
     2    45    32    1
     3    32    33    2
     4    33    34    1
     5    35    34    1
     6    35    36    1
     7    36    31    1
     8     1    31    1
     9     1     2    1
    10     2     3    1
    11     2     4    1
    12     4    46    1
    13    47    46    1
    14    47    48    1
    15    48    49    1
    16    49    50    1
    17    49    57    1
    18    57    58    1
    19    49    51    1
    20    51    52    1
    21    51    53    1
    22    53    54    1
    23    53    55    1
    24     4     5    1
    25     5     6    1
    26     5     7    1
    27     7     8    2
    28     7     9    1
    29     9    10    1
    30    10    27    1
    31    27    28    1
    32    10    11    1
    33    11    12    1
    34    11    13    1
    35    11    14    1
    36    14    15    1
    37    14    16    1
    38    16    17    1
    39    16    18    1
    40    18    19    2
    41    18    20    1
    42    20    21    1
    43    20    22    1
    44    22    23    1
    45    23    24    1
    46    23    29    1
    47    29    30    1
    48    36    37    1
    49    37    38    1
    50    38    39    1
    51    38    40    1
    52    41    40    1
    53    41    42    1
    54    42    43    1
    55    42    33    1
    56    41    35    1
    57    23     1    1
    58    55    47    1
    59    52    56    1
    60    13    25    1
    61    15    26    1
@<TRIPOS>MOLECULE
*****
 58 61 0 0 0
SMALL
GASTEIGER

@<TRIPOS>ATOM
      1 C          63.0471   89.8355   12.3688 C.3     1  UNL1        0.1448
      2 C          62.9095   89.3046   10.9726 C.3     1  UNL1        0.0575
      3 C          62.9509   90.5494   10.1366 C.3     1  UNL1        0.0051
      4 C          62.7535   88.2198    9.9484 C.3     1  UNL1        0.1306
      5 C          62.6100   86.7959    9.4992 C.3     1  UNL1        0.1263
      6 C          62.5022   86.5835    8.1704 C.3     1  UNL1        0.0142
      7 C          62.5073   85.3148    9.7138 C.2     1  UNL1        0.3188
      8 O          62.3697   84.7840    8.3176 O.2     1  UNL1       -0.2500
      9 O          62.4658   84.0701   10.5498 O.3     1  UNL1       -0.4497
     10 C          62.4938   83.3081   11.8416 C.3     1  UNL1        0.1953
     11 C          62.5857   83.1798   13.3332 C.3     1  UNL1        0.1497
     12 C          62.5672   82.0725   14.3448 C.3     1  UNL1        0.0356
     13 O          62.4346   81.8399   12.6762 O.3     1  UNL1       -0.3808
     14 C          62.7233   83.7106   14.7294 C.3     1  UNL1        0.1451
     15 O          62.6818   82.4659   15.5654 O.3     1  UNL1       -0.3815
     16 C          62.8793   84.7955   15.7535 C.3     1  UNL1        0.0869
     17 C          62.9073   84.0335   17.0452 C.3     1  UNL1        0.0104
     18 C          63.0228   86.2193   16.2027 C.2     1  UNL1        0.1523
     19 O          63.1147   86.0911   17.6944 O.2     1  UNL1       -0.2960
     20 C          63.1255   87.7004   15.9882 C.3     1  UNL1        0.0601
     21 C          63.2631   88.2313   17.3844 C.3     1  UNL1        0.0078
     22 C          63.1669   88.9452   15.1522 C.3     1  UNL1        0.0370
     23 C          63.1389   89.7072   13.8604 C.3     1  UNL1        0.1183
     24 C          63.2229   91.1409   13.4275 C.3     1  UNL1        0.0321
     25 H          62.3780   81.9557   11.7148 H       1  UNL1        0.2105
     26 H          63.3292   81.8276   15.2272 H       1  UNL1        0.2105
     27 C          62.3503   81.8842   11.3923 C.3     1  UNL1        0.0462
     28 C          63.4184   81.2521   10.5499 C.3     1  UNL1        0.0039
     29 O          63.2922   90.6264   15.0357 O.3     1  UNL1       -0.3535
     30 C          63.1887   90.5423   15.8217 C.3     1  UNL1        0.1740
     31 O          63.1497   91.3164   12.1542 O.3     1  UNL1       -0.3278
     32 N          66.3098   92.8973   16.9081 N.2     1  UNL1       -0.2243
     33 C          66.1721   92.8107   15.4169 C.2     1  UNL1        0.2833
     34 O          65.0025   92.2396   14.6712 O.2     1  UNL1       -0.4466
     35 C          65.2873   92.3558   13.2031 C.3     1  UNL1        0.2426
     36 C          64.4953   91.9593   11.9925 C.3     1  UNL1        0.2785
     37 O          65.0488   92.2058   10.6204 O.3     1  UNL1       -0.3302
     38 C          66.3944   92.8487   10.4588 C.3     1  UNL1        0.1198
     39 C          66.9479   93.0951    9.0865 C.3     1  UNL1        0.0322
     40 C          67.1864   93.2452   11.6693 C.3     1  UNL1        0.0534
     41 C          66.6330   92.9988   13.0415 C.3     1  UNL1        0.1245
     42 N          67.1797   93.2799   14.4097 N.pl3   1  UNL1       -0.2603
     43 C          68.5019   93.9181   14.7168 C.3     1  UNL1        0.1166
     44 C          63.8181   92.9138   17.6438 C.3     1  UNL1        0.0285
     45 C          65.2134   92.3838   17.7937 C.3     1  UNL1        0.1301
     46 O          62.7255   88.9817    8.6567 O.3     1  UNL1       -0.3323
     47 C          61.4252   89.1961    7.9404 C.3     1  UNL1        0.2375
     48 C          60.2624   88.2871    8.2088 C.3     1  UNL1        0.0910
     49 C          58.9620   88.5015    7.4924 C.3     1  UNL1        0.1246
     50 C          57.5377   88.3016    7.0667 C.3     1  UNL1        0.0324
     51 C          58.8244   89.6247    6.5078 C.3     1  UNL1        0.1623
     52 O          57.5241   89.8390    5.7915 O.3     1  UNL1       -0.3796
     53 C          59.9871   90.5335    6.2395 C.3     1  UNL1        0.1468
     54 C          59.8495   91.6568    5.2548 C.3     1  UNL1        0.0348
     55 O          61.2875   90.3192    6.9558 O.3     1  UNL1       -0.3304
     56 H          56.8829   89.1699    6.0781 H       1  UNL1        0.2105
     57 O          58.6050   87.3089    8.3292 O.3     1  UNL1       -0.3532
     58 C          59.1891   85.9652    8.0077 C.3     1  UNL1        0.1740
@<TRIPOS>BOND
     1    44    45    1
     2    45    32    1
     3    32    33    2
     4    33    34    1
     5    35    34    1
     6    35    36    1
     7    36    31    1
     8     1    31    1
     9     1     2    1
    10     2     3    1
    11     2     4    1
    12     4    46    1
    13    47    46    1
    14    47    48    1
    15    48    49    1
    16    49    50    1
    17    49    57    1
    18    57    58    1
    19    49    51    1
    20    51    52    1
    21    51    53    1
    22    53    54    1
    23    53    55    1
    24     4     5    1
    25     5     6    1
    26     5     7    1
    27     7     8    2
    28     7     9    1
    29     9    10    1
    30    10    27    1
    31    27    28    1
    32    10    11    1
    33    11    12    1
    34    11    13    1
    35    11    14    1
    36    14    15    1
    37    14    16    1
    38    16    17    1
    39    16    18    1
    40    18    19    2
    41    18    20    1
    42    20    21    1
    43    20    22    1
    44    22    23    1
    45    23    24    1
    46    23    29    1
    47    29    30    1
    48    36    37    1
    49    37    38    1
    50    38    39    1
    51    38    40    1
    52    41    40    1
    53    41    42    1
    54    42    43    1
    55    42    33    1
    56    41    35    1
    57    23     1    1
    58    55    47    1
    59    52    56    1
    60    13    25    1
    61    15    26    1
@<TRIPOS>MOLECULE
*****
 58 61 0 0 0
SMALL
GASTEIGER

@<TRIPOS>ATOM
      1 C          62.4418   87.5802    9.7285 C.3     1  UNL1        0.1448
      2 C          62.5331   88.7528   10.6594 C.3     1  UNL1        0.0575
      3 C          62.2734   89.9195    9.7531 C.3     1  UNL1        0.0051
      4 C          62.7399   89.4062   11.9937 C.3     1  UNL1        0.1306
      5 C          63.0213   89.4109   13.4670 C.3     1  UNL1        0.1263
      6 C          63.0493   90.6140   14.0788 C.3     1  UNL1        0.0142
      7 C          63.3216   88.7661   14.7877 C.2     1  UNL1        0.3188
      8 O          63.4129   89.9387   15.7187 O.2     1  UNL1       -0.2500
      9 O          63.5813   87.5994   15.6940 O.3     1  UNL1       -0.4497
     10 C          63.7488   86.1418   16.0065 C.3     1  UNL1        0.1953
     11 C          63.7912   84.6822   15.6633 C.3     1  UNL1        0.1497
     12 C          64.0251   83.3890   16.3862 C.3     1  UNL1        0.0356
     13 O          64.0534   84.9099   17.1225 O.3     1  UNL1       -0.3808
     14 C          63.6999   83.5096   14.7323 C.3     1  UNL1        0.1451
     15 O          63.9595   82.3429   15.6386 O.3     1  UNL1       -0.3815
     16 C          63.4930   82.8563   13.3980 C.3     1  UNL1        0.0869
     17 C          63.6606   81.3988   13.7105 C.3     1  UNL1        0.0104
     18 C          63.2116   82.8515   11.9247 C.2     1  UNL1        0.1523
     19 O          63.2539   81.3919   11.5814 O.2     1  UNL1       -0.2960
     20 C          62.9113   83.4964   10.6040 C.3     1  UNL1        0.0601
     21 C          62.8200   82.3238    9.6731 C.3     1  UNL1        0.0078
     22 C          62.6517   84.6631    9.6977 C.3     1  UNL1        0.0370
     23 C          62.4841   86.1207    9.3853 C.3     1  UNL1        0.1183
     24 C          62.1909   86.9594    8.1768 C.3     1  UNL1        0.0321
     25 H          64.0195   85.8604   17.3127 H       1  UNL1        0.2105
     26 H          63.3708   82.3937   16.4079 H       1  UNL1        0.2105
     27 C          64.0303   86.1466   17.4799 C.3     1  UNL1        0.0462
     28 C          62.9703   86.5891   18.4445 C.3     1  UNL1        0.0039
     29 O          62.3122   85.2739    8.1591 O.3     1  UNL1       -0.3535
     30 C          62.8179   84.9023    7.6675 C.3     1  UNL1        0.1740
     31 O          62.1415   88.2250    8.4079 O.3     1  UNL1       -0.3278
     32 N          60.6173   92.0435    4.1439 N.2     1  UNL1       -0.2243
     33 C          60.2362   90.9508    5.0984 C.2     1  UNL1        0.2833
     34 O          61.1537   90.2689    6.0697 O.2     1  UNL1       -0.4466
     35 C          60.3554   89.2449    6.8206 C.3     1  UNL1        0.2426
     36 C          60.7307   88.2740    7.9008 C.3     1  UNL1        0.2785
     37 O          59.6953   87.3523    8.4737 O.3     1  UNL1       -0.3302
     38 C          58.2845   87.4013    7.9665 C.3     1  UNL1        0.1198
     39 C          57.2491   86.4795    8.5395 C.3     1  UNL1        0.0322
     40 C          57.9091   88.3721    6.8864 C.3     1  UNL1        0.0534
     41 C          58.9445   89.2939    6.3134 C.3     1  UNL1        0.1245
     42 N          58.8709   90.3482    5.2490 N.pl3   1  UNL1       -0.2603
     43 C          57.6470   90.7325    4.4717 C.3     1  UNL1        0.1166
     44 C          62.9583   92.0953    3.0181 C.3     1  UNL1        0.0285
     45 C          62.0297   92.5474    4.1060 C.3     1  UNL1        0.1301
     46 O          62.5724   90.8636   11.6813 O.3     1  UNL1       -0.3323
     47 C          63.7544   91.7849   11.7443 C.3     1  UNL1        0.2375
     48 C          64.4652   92.0049   13.0468 C.3     1  UNL1        0.0910
     49 C          65.6473   92.9263   13.1098 C.3     1  UNL1        0.1246
     50 C          66.8053   93.6970   13.6709 C.3     1  UNL1        0.0324
     51 C          66.1185   93.6275   11.8704 C.3     1  UNL1        0.1623
     52 O          67.3005   94.5488   11.9334 O.3     1  UNL1       -0.3796
     53 C          65.4077   93.4075   10.5680 C.3     1  UNL1        0.1468
     54 C          65.8790   94.1088    9.3285 C.3     1  UNL1        0.0348
     55 O          64.2257   92.4862   10.5049 O.3     1  UNL1       -0.3304
     56 H          67.6396   94.5780   12.8417 H       1  UNL1        0.2105
     57 O          65.5782   92.4926   14.5441 O.3     1  UNL1       -0.3532
     58 C          66.6790   92.8629   15.4934 C.3     1  UNL1        0.1740
@<TRIPOS>BOND
     1    44    45    1
     2    45    32    1
     3    32    33    2
     4    33    34    1
     5    35    34    1
     6    35    36    1
     7    36    31    1
     8     1    31    1
     9     1     2    1
    10     2     3    1
    11     2     4    1
    12     4    46    1
    13    47    46    1
    14    47    48    1
    15    48    49    1
    16    49    50    1
    17    49    57    1
    18    57    58    1
    19    49    51    1
    20    51    52    1
    21    51    53    1
    22    53    54    1
    23    53    55    1
    24     4     5    1
    25     5     6    1
    26     5     7    1
    27     7     8    2
    28     7     9    1
    29     9    10    1
    30    10    27    1
    31    27    28    1
    32    10    11    1
    33    11    12    1
    34    11    13    1
    35    11    14    1
    36    14    15    1
    37    14    16    1
    38    16    17    1
    39    16    18    1
    40    18    19    2
    41    18    20    1
    42    20    21    1
    43    20    22    1
    44    22    23    1
    45    23    24    1
    46    23    29    1
    47    29    30    1
    48    36    37    1
    49    37    38    1
    50    38    39    1
    51    38    40    1
    52    41    40    1
    53    41    42    1
    54    42    43    1
    55    42    33    1
    56    41    35    1
    57    23     1    1
    58    55    47    1
    59    52    56    1
    60    13    25    1
    61    15    26    1
