@<TRIPOS>MOLECULE
*****
 29 31 0 0 0
SMALL
GASTEIGER

@<TRIPOS>ATOM
      1 C          64.7415   91.6516   11.9272 C.ar    1  UNL1        0.1534
      2 C          63.7924   91.5005   10.7756 C.ar    1  UNL1        0.0351
      3 C          62.8123   90.3653   10.7555 C.ar    1  UNL1        0.0722
      4 CL         61.8631   90.2142    9.6038 Cl      1  UNL1       -0.0809
      5 C          62.7813   89.3810   11.8870 C.ar    1  UNL1        0.0577
      6 C          63.7305   89.5320   13.0386 C.ar    1  UNL1        0.0462
      7 C          64.7106   90.6673   13.0587 C.ar    1  UNL1        0.1602
      8 F          65.6598   90.8184   14.2104 F       1  UNL1       -0.2027
      9 O          65.2901   93.1347   13.3412 O.2     1  UNL1       -0.1498
     10 S          65.7217   92.7869   11.9474 S.O2    1  UNL1        0.0772
     11 O          66.1533   92.4391   10.5536 O.2     1  UNL1       -0.1498
     12 N          66.7018   93.9222   11.9676 N.pl3   1  UNL1       -0.1936
     13 H          67.3299   94.0169   12.7198 H       1  UNL1        0.1758
     14 C          66.7250   94.9132   10.8418 C.ar    1  UNL1        0.1786
     15 N          67.7554   94.9882    9.7543 N.ar    1  UNL1       -0.2214
     16 C          67.3891   96.1245    8.8462 C.ar    1  UNL1        0.1079
     17 C          66.1322   96.7518    9.3725 C.ar    1  UNL1        0.0588
     18 S          65.7218   96.0031   10.6059 S.2     1  UNL1       -0.0497
     19 N          61.8011   88.2456   11.8668 N.pl3   1  UNL1       -0.3319
     20 H          60.8930   88.3730   12.2249 H       1  UNL1        0.1468
     21 C          62.2046   86.9164   11.3009 C.3     1  UNL1        0.0885
     22 C          61.6981   86.4891    9.9552 C.3     1  UNL1        0.0379
     23 C          62.6013   85.7481    9.0145 C.3     1  UNL1        0.0047
     24 C          62.0948   85.3209    7.6688 C.3     1  UNL1        0.0199
     25 C          60.6849   85.6347    7.2639 C.3     1  UNL1        0.1007
     26 N          59.7817   86.3756    8.2047 N.3     1  UNL1       -0.1697
     27 O          58.3719   86.6894    7.7997 O.3     1  UNL1       -0.3109
     28 C          60.2883   86.8029    9.5503 C.3     1  UNL1        0.1023
     29 H          58.2076   86.3458    6.9076 H       1  UNL1        0.2366
@<TRIPOS>BOND
     1     9    10    2
     2    10    11    2
     3    10    12    1
     4    12    14    1
     5    14    15   ar
     6    15    16   ar
     7    16    17   ar
     8    17    18   ar
     9    10     1    1
    10     1     2   ar
    11     2     3   ar
    12     3     4    1
    13     3     5   ar
    14     5    19    1
    15    19    21    1
    16    22    21    1
    17    22    23    1
    18    23    24    1
    19    24    25    1
    20    25    26    1
    21    26    27    1
    22    26    28    1
    23     5     6   ar
    24     6     7   ar
    25     7     8    1
    26    18    14   ar
    27     7     1   ar
    28    28    22    1
    29    12    13    1
    30    19    20    1
    31    27    29    1
@<TRIPOS>MOLECULE
*****
 29 31 0 0 0
SMALL
GASTEIGER

@<TRIPOS>ATOM
      1 C          63.7366   90.6933   11.9608 C.ar    1  UNL1        0.1534
      2 C          62.7712   90.7082   10.8129 C.ar    1  UNL1        0.0351
      3 C          61.9156   89.5075   10.5368 C.ar    1  UNL1        0.0722
      4 CL         60.9501   89.5224    9.3889 Cl      1  UNL1       -0.0809
      5 C          62.0254   88.2919   11.4087 C.ar    1  UNL1        0.0577
      6 C          62.9908   88.2770   12.5567 C.ar    1  UNL1        0.0462
      7 C          63.8464   89.4777   12.8327 C.ar    1  UNL1        0.1602
      8 F          64.8118   89.4628   13.9806 F       1  UNL1       -0.2027
      9 O          65.0779   91.8741   10.8178 O.2     1  UNL1       -0.1498
     10 S          64.5922   91.8941   12.2368 S.O2    1  UNL1        0.0772
     11 O          64.1065   91.9140   13.6559 O.2     1  UNL1       -0.1498
     12 N          65.4479   93.0947   12.5128 N.pl3   1  UNL1       -0.1936
     13 H          65.2944   93.9325   12.0191 H       1  UNL1        0.1758
     14 C          66.5374   93.0189   13.5411 C.ar    1  UNL1        0.1786
     15 N          66.7426   93.9730   14.6802 N.ar    1  UNL1       -0.2214
     16 C          67.9450   93.5194   15.4539 C.ar    1  UNL1        0.1079
     17 C          68.4830   92.2850   14.7928 C.ar    1  UNL1        0.0588
     18 S          67.6130   91.9757   13.6106 S.2     1  UNL1       -0.0497
     19 N          61.1697   87.0912   11.1327 N.pl3   1  UNL1       -0.3319
     20 H          60.2878   87.0061   11.5618 H       1  UNL1        0.1468
     21 C          61.6579   86.0201   10.2029 C.3     1  UNL1        0.0885
     22 C          62.5567   84.9342   10.7156 C.3     1  UNL1        0.0379
     23 C          63.4046   84.1486    9.7597 C.3     1  UNL1        0.0047
     24 C          64.3034   83.0627   10.2725 C.3     1  UNL1        0.0199
     25 C          64.3542   82.7624   11.7413 C.3     1  UNL1        0.1007
     26 N          63.5063   83.5480   12.6972 N.3     1  UNL1       -0.1697
     27 O          63.5572   83.2477   14.1660 O.3     1  UNL1       -0.3109
     28 C          62.6076   84.6339   12.1844 C.3     1  UNL1        0.1023
     29 H          64.1830   82.5242   14.3266 H       1  UNL1        0.2366
@<TRIPOS>BOND
     1     9    10    2
     2    10    11    2
     3    10    12    1
     4    12    14    1
     5    14    15   ar
     6    15    16   ar
     7    16    17   ar
     8    17    18   ar
     9    10     1    1
    10     1     2   ar
    11     2     3   ar
    12     3     4    1
    13     3     5   ar
    14     5    19    1
    15    19    21    1
    16    22    21    1
    17    22    23    1
    18    23    24    1
    19    24    25    1
    20    25    26    1
    21    26    27    1
    22    26    28    1
    23     5     6   ar
    24     6     7   ar
    25     7     8    1
    26    18    14   ar
    27     7     1   ar
    28    28    22    1
    29    12    13    1
    30    19    20    1
    31    27    29    1
@<TRIPOS>MOLECULE
*****
 29 31 0 0 0
SMALL
GASTEIGER

@<TRIPOS>ATOM
      1 C          63.7727   86.7541   15.5110 C.ar    1  UNL1        0.1534
      2 C          64.0935   87.5501   14.2808 C.ar    1  UNL1        0.0351
      3 C          63.9863   89.0460   14.3063 C.ar    1  UNL1        0.0722
      4 CL         64.3072   89.8420   13.0761 Cl      1  UNL1       -0.0809
      5 C          63.5583   89.7459   15.5620 C.ar    1  UNL1        0.0577
      6 C          63.2375   88.9500   16.7922 C.ar    1  UNL1        0.0462
      7 C          63.3447   87.4541   16.7667 C.ar    1  UNL1        0.1602
      8 F          63.0238   86.6580   17.9970 F       1  UNL1       -0.2027
      9 O          62.4342   85.1480   15.8698 O.2     1  UNL1       -0.1498
     10 S          63.8799   85.2581   15.4855 S.O2    1  UNL1        0.0772
     11 O          65.3256   85.3682   15.1012 O.2     1  UNL1       -0.1498
     12 N          63.9871   83.7622   15.4601 N.pl3   1  UNL1       -0.1936
     13 H          64.3791   83.2837   16.2259 H       1  UNL1        0.1758
     14 C          63.4968   82.9953   14.2677 C.ar    1  UNL1        0.1786
     15 N          63.2531   81.5164   14.2099 N.ar    1  UNL1       -0.2214
     16 C          62.7699   81.1798   12.8303 C.ar    1  UNL1        0.1079
     17 C          62.7149   82.4508   12.0355 C.ar    1  UNL1        0.0588
     18 S          63.1643   83.5729   12.9239 S.2     1  UNL1       -0.0497
     19 N          63.4511   91.2419   15.5875 N.pl3   1  UNL1       -0.3319
     20 H          62.6897   91.6884   15.1514 H       1  UNL1        0.1468
     21 C          64.5039   92.0577   16.2775 C.3     1  UNL1        0.0885
     22 C          65.8421   92.2576   15.6297 C.3     1  UNL1        0.0379
     23 C          67.0645   92.4497   16.4775 C.3     1  UNL1        0.0047
     24 C          68.4025   92.6496   15.8297 C.3     1  UNL1        0.0199
     25 C          68.5181   92.6574   14.3342 C.3     1  UNL1        0.1007
     26 N          67.2957   92.4653   13.4865 N.3     1  UNL1       -0.1697
     27 O          67.4114   92.4732   11.9909 O.3     1  UNL1       -0.3109
     28 C          65.9577   92.2654   14.1342 C.3     1  UNL1        0.1023
     29 H          68.3376   92.6129   11.7390 H       1  UNL1        0.2366
@<TRIPOS>BOND
     1     9    10    2
     2    10    11    2
     3    10    12    1
     4    12    14    1
     5    14    15   ar
     6    15    16   ar
     7    16    17   ar
     8    17    18   ar
     9    10     1    1
    10     1     2   ar
    11     2     3   ar
    12     3     4    1
    13     3     5   ar
    14     5    19    1
    15    19    21    1
    16    22    21    1
    17    22    23    1
    18    23    24    1
    19    24    25    1
    20    25    26    1
    21    26    27    1
    22    26    28    1
    23     5     6   ar
    24     6     7   ar
    25     7     8    1
    26    18    14   ar
    27     7     1   ar
    28    28    22    1
    29    12    13    1
    30    19    20    1
    31    27    29    1
@<TRIPOS>MOLECULE
*****
 29 31 0 0 0
SMALL
GASTEIGER

@<TRIPOS>ATOM
      1 C          62.7946   89.9068   11.8699 C.ar    1  UNL1        0.1534
      2 C          63.4290   89.8044   13.2252 C.ar    1  UNL1        0.0351
      3 C          64.5329   90.7445   13.6094 C.ar    1  UNL1        0.0722
      4 CL         65.1674   90.6422   14.9648 Cl      1  UNL1       -0.0809
      5 C          65.0022   91.7870   12.6384 C.ar    1  UNL1        0.0577
      6 C          64.3678   91.8893   11.2831 C.ar    1  UNL1        0.0462
      7 C          63.2639   90.9492   10.8988 C.ar    1  UNL1        0.1602
      8 F          62.6294   91.0515    9.5434 F       1  UNL1       -0.2027
      9 O          60.7481   89.7036   12.3902 O.2     1  UNL1       -0.1498
     10 S          61.6907   88.9666   11.4855 S.O2    1  UNL1        0.0772
     11 O          62.6332   88.2297   10.5809 O.2     1  UNL1       -0.1498
     12 N          60.5868   88.0266   11.1013 N.pl3   1  UNL1       -0.1936
     13 H          60.1759   87.4456   11.7816 H       1  UNL1        0.1758
     14 C          60.1090   87.9717    9.6804 C.ar    1  UNL1        0.1786
     15 N          59.8708   89.1506    8.7841 N.ar    1  UNL1       -0.2214
     16 C          59.4001   88.6357    7.4562 C.ar    1  UNL1        0.1079
     17 C          59.3475   87.1385    7.5318 C.ar    1  UNL1        0.0588
     18 S          59.7856   86.7281    8.9065 S.2     1  UNL1       -0.0497
     19 N          66.1061   92.7271   13.0227 N.pl3   1  UNL1       -0.3319
     20 H          66.7979   92.4392   13.6613 H       1  UNL1        0.1468
     21 C          66.1560   94.1058   12.4340 C.3     1  UNL1        0.0885
     22 C          66.6582   94.3062   11.0348 C.3     1  UNL1        0.0379
     23 C          66.4075   95.6045   10.3267 C.3     1  UNL1        0.0047
     24 C          66.9096   95.8048    8.9275 C.3     1  UNL1        0.0199
     25 C          67.6624   94.7068    8.2364 C.3     1  UNL1        0.1007
     26 N          67.9131   93.4084    8.9445 N.3     1  UNL1       -0.1697
     27 O          68.6659   92.3104    8.2534 O.3     1  UNL1       -0.3109
     28 C          67.4110   93.2081   10.3437 C.3     1  UNL1        0.1023
     29 H          68.9167   92.6013    7.3627 H       1  UNL1        0.2366
@<TRIPOS>BOND
     1     9    10    2
     2    10    11    2
     3    10    12    1
     4    12    14    1
     5    14    15   ar
     6    15    16   ar
     7    16    17   ar
     8    17    18   ar
     9    10     1    1
    10     1     2   ar
    11     2     3   ar
    12     3     4    1
    13     3     5   ar
    14     5    19    1
    15    19    21    1
    16    22    21    1
    17    22    23    1
    18    23    24    1
    19    24    25    1
    20    25    26    1
    21    26    27    1
    22    26    28    1
    23     5     6   ar
    24     6     7   ar
    25     7     8    1
    26    18    14   ar
    27     7     1   ar
    28    28    22    1
    29    12    13    1
    30    19    20    1
    31    27    29    1
@<TRIPOS>MOLECULE
*****
 29 31 0 0 0
SMALL
GASTEIGER

@<TRIPOS>ATOM
      1 C          63.7460   90.9059   11.7135 C.ar    1  UNL1        0.1534
      2 C          62.7344   90.8080   10.6103 C.ar    1  UNL1        0.0351
      3 C          61.8766   89.5839   10.4859 C.ar    1  UNL1        0.0722
      4 CL         60.8650   89.4859    9.3827 Cl      1  UNL1       -0.0809
      5 C          62.0304   88.4576   11.4647 C.ar    1  UNL1        0.0577
      6 C          63.0420   88.5556   12.5678 C.ar    1  UNL1        0.0462
      7 C          63.8998   89.7797   12.6923 C.ar    1  UNL1        0.1602
      8 F          64.9114   89.8777   13.7955 F       1  UNL1       -0.2027
      9 O          64.4502   92.0861   13.3294 O.2     1  UNL1       -0.1498
     10 S          64.6039   92.1302   11.8380 S.O2    1  UNL1        0.0772
     11 O          64.7576   92.1742   10.3466 O.2     1  UNL1       -0.1498
     12 N          65.4618   93.3543   11.9625 N.pl3   1  UNL1       -0.1936
     13 H          65.3429   93.9629   12.7272 H       1  UNL1        0.1758
     14 C          66.5007   93.6511   10.9220 C.ar    1  UNL1        0.1786
     15 N          67.6237   92.7445   10.5136 N.ar    1  UNL1       -0.2214
     16 C          68.4160   93.4397    9.4464 C.ar    1  UNL1        0.1079
     17 C          67.7827   94.7761    9.1953 C.ar    1  UNL1        0.0588
     18 S          66.5989   94.9068   10.1073 S.2     1  UNL1       -0.0497
     19 N          61.1725   87.2334   11.3402 N.pl3   1  UNL1       -0.3319
     20 H          60.3482   87.1538   11.8726 H       1  UNL1        0.1468
     21 C          61.5705   86.1307   10.4045 C.3     1  UNL1        0.0885
     22 C          62.5062   85.0542   10.8689 C.3     1  UNL1        0.0379
     23 C          63.2965   84.2643    9.8682 C.3     1  UNL1        0.0047
     24 C          64.2322   83.1879   10.3326 C.3     1  UNL1        0.0199
     25 C          64.3777   82.9014   11.7978 C.3     1  UNL1        0.1007
     26 N          63.5874   83.6913   12.7985 N.3     1  UNL1       -0.1697
     27 O          63.7329   83.4047   14.2637 O.3     1  UNL1       -0.3109
     28 C          62.6517   84.7677   12.3341 C.3     1  UNL1        0.1023
     29 H          64.3718   82.6860   14.3907 H       1  UNL1        0.2366
@<TRIPOS>BOND
     1     9    10    2
     2    10    11    2
     3    10    12    1
     4    12    14    1
     5    14    15   ar
     6    15    16   ar
     7    16    17   ar
     8    17    18   ar
     9    10     1    1
    10     1     2   ar
    11     2     3   ar
    12     3     4    1
    13     3     5   ar
    14     5    19    1
    15    19    21    1
    16    22    21    1
    17    22    23    1
    18    23    24    1
    19    24    25    1
    20    25    26    1
    21    26    27    1
    22    26    28    1
    23     5     6   ar
    24     6     7   ar
    25     7     8    1
    26    18    14   ar
    27     7     1   ar
    28    28    22    1
    29    12    13    1
    30    19    20    1
    31    27    29    1
@<TRIPOS>MOLECULE
*****
 29 31 0 0 0
SMALL
GASTEIGER

@<TRIPOS>ATOM
      1 C          63.7005   86.4885   13.7563 C.ar    1  UNL1        0.1534
      2 C          63.2686   87.1914   12.5035 C.ar    1  UNL1        0.0351
      3 C          63.2741   88.6902   12.4446 C.ar    1  UNL1        0.0722
      4 CL         62.8422   89.3931   11.1919 Cl      1  UNL1       -0.0809
      5 C          63.7114   89.4861   13.6385 C.ar    1  UNL1        0.0577
      6 C          64.1433   88.7832   14.8912 C.ar    1  UNL1        0.0462
      7 C          64.1379   87.2844   14.9501 C.ar    1  UNL1        0.1602
      8 F          64.5698   86.5815   16.2029 F       1  UNL1       -0.2027
      9 O          62.2092   84.9870   13.6105 O.2     1  UNL1       -0.1498
     10 S          63.6951   84.9896   13.8152 S.O2    1  UNL1        0.0772
     11 O          65.1810   84.9923   14.0199 O.2     1  UNL1       -0.1498
     12 N          63.6896   83.4908   13.8742 N.pl3   1  UNL1       -0.1936
     13 H          63.7411   83.0322   14.7438 H       1  UNL1        0.1758
     14 C          63.6058   82.6907   12.6081 C.ar    1  UNL1        0.1786
     15 N          62.9061   81.3744   12.4417 N.ar    1  UNL1       -0.2214
     16 C          63.0748   80.9367   11.0169 C.ar    1  UNL1        0.1079
     17 C          63.8788   81.9825   10.3028 C.ar    1  UNL1        0.0588
     18 S          64.2070   83.0666   11.2862 S.2     1  UNL1       -0.0497
     19 N          63.7168   90.9850   13.5795 N.pl3   1  UNL1       -0.3319
     20 H          62.9456   91.4938   13.9195 H       1  UNL1        0.1468
     21 C          64.8973   91.7086   13.0026 C.3     1  UNL1        0.0885
     22 C          66.0816   92.0215   13.8684 C.3     1  UNL1        0.0379
     23 C          65.8782   92.4486   15.2918 C.3     1  UNL1        0.0047
     24 C          67.0625   92.7614   16.1575 C.3     1  UNL1        0.0199
     25 C          68.4503   92.6472   15.5997 C.3     1  UNL1        0.1007
     26 N          68.6537   92.2201   14.1763 N.3     1  UNL1       -0.1697
     27 O          70.0415   92.1059   13.6186 O.3     1  UNL1       -0.3109
     28 C          67.4694   91.9073   13.3106 C.3     1  UNL1        0.1023
     29 H          70.6859   92.3417   14.3041 H       1  UNL1        0.2366
@<TRIPOS>BOND
     1     9    10    2
     2    10    11    2
     3    10    12    1
     4    12    14    1
     5    14    15   ar
     6    15    16   ar
     7    16    17   ar
     8    17    18   ar
     9    10     1    1
    10     1     2   ar
    11     2     3   ar
    12     3     4    1
    13     3     5   ar
    14     5    19    1
    15    19    21    1
    16    22    21    1
    17    22    23    1
    18    23    24    1
    19    24    25    1
    20    25    26    1
    21    26    27    1
    22    26    28    1
    23     5     6   ar
    24     6     7   ar
    25     7     8    1
    26    18    14   ar
    27     7     1   ar
    28    28    22    1
    29    12    13    1
    30    19    20    1
    31    27    29    1
@<TRIPOS>MOLECULE
*****
 29 31 0 0 0
SMALL
GASTEIGER

@<TRIPOS>ATOM
      1 C          64.3400   90.9110   12.7045 C.ar    1  UNL1        0.1534
      2 C          63.4577   90.9636   11.4926 C.ar    1  UNL1        0.0351
      3 C          62.6137   89.7786   11.1274 C.ar    1  UNL1        0.0722
      4 CL         61.7315   89.8311    9.9153 Cl      1  UNL1       -0.0809
      5 C          62.6520   88.5410   11.9741 C.ar    1  UNL1        0.0577
      6 C          63.5342   88.4884   13.1860 C.ar    1  UNL1        0.0462
      7 C          64.3782   89.6734   13.5513 C.ar    1  UNL1        0.1602
      8 F          65.2605   89.6208   14.7633 F       1  UNL1       -0.2027
      9 O          65.7103   92.1537   11.6664 O.2     1  UNL1       -0.1498
     10 S          65.1840   92.0960   13.0698 S.O2    1  UNL1        0.0772
     11 O          64.6578   92.0383   14.4733 O.2     1  UNL1       -0.1498
     12 N          66.0281   93.2809   13.4350 N.pl3   1  UNL1       -0.1936
     13 H          65.7565   94.1843   13.1532 H       1  UNL1        0.1758
     14 C          67.2859   93.0895   14.2297 C.ar    1  UNL1        0.1786
     15 N          68.5240   92.3825   13.7639 N.ar    1  UNL1       -0.2214
     16 C          69.5297   92.4275   14.8759 C.ar    1  UNL1        0.1079
     17 C          68.9130   93.1625   16.0290 C.ar    1  UNL1        0.0588
     18 S          67.5262   93.5717   15.6296 S.2     1  UNL1       -0.0497
     19 N          61.8079   87.3560   11.6088 N.pl3   1  UNL1       -0.3319
     20 H          60.8672   87.3144   11.8960 H       1  UNL1        0.1468
     21 C          62.3972   86.2343   10.8059 C.3     1  UNL1        0.0885
     22 C          61.8658   85.9327    9.4360 C.3     1  UNL1        0.0379
     23 C          62.7374   85.2436    8.4284 C.3     1  UNL1        0.0047
     24 C          62.2059   84.9420    7.0585 C.3     1  UNL1        0.0199
     25 C          60.8029   85.3295    6.6963 C.3     1  UNL1        0.1007
     26 N          59.9312   86.0186    7.7039 N.3     1  UNL1       -0.1697
     27 O          58.5281   86.4061    7.3417 O.3     1  UNL1       -0.3109
     28 C          60.4627   86.3202    9.0738 C.3     1  UNL1        0.1023
     29 H          58.3454   86.1408    6.4267 H       1  UNL1        0.2366
@<TRIPOS>BOND
     1     9    10    2
     2    10    11    2
     3    10    12    1
     4    12    14    1
     5    14    15   ar
     6    15    16   ar
     7    16    17   ar
     8    17    18   ar
     9    10     1    1
    10     1     2   ar
    11     2     3   ar
    12     3     4    1
    13     3     5   ar
    14     5    19    1
    15    19    21    1
    16    22    21    1
    17    22    23    1
    18    23    24    1
    19    24    25    1
    20    25    26    1
    21    26    27    1
    22    26    28    1
    23     5     6   ar
    24     6     7   ar
    25     7     8    1
    26    18    14   ar
    27     7     1   ar
    28    28    22    1
    29    12    13    1
    30    19    20    1
    31    27    29    1
@<TRIPOS>MOLECULE
*****
 29 31 0 0 0
SMALL
GASTEIGER

@<TRIPOS>ATOM
      1 C          64.4781   91.3752   11.9721 C.ar    1  UNL1        0.1534
      2 C          64.5997   90.3356   13.0465 C.ar    1  UNL1        0.0351
      3 C          63.7386   89.1081   13.0032 C.ar    1  UNL1        0.0722
      4 CL         63.8602   88.0684   14.0777 Cl      1  UNL1       -0.0809
      5 C          62.7560   88.9203   11.8856 C.ar    1  UNL1        0.0577
      6 C          62.6343   89.9599   10.8112 C.ar    1  UNL1        0.0462
      7 C          63.4954   91.1874   10.8545 C.ar    1  UNL1        0.1602
      8 F          63.3738   92.2271    9.7800 F       1  UNL1       -0.2027
      9 O          65.6391   92.4436   10.5543 O.2     1  UNL1       -0.1498
     10 S          65.3391   92.6027   12.0153 S.O2    1  UNL1        0.0772
     11 O          65.0391   92.7618   13.4763 O.2     1  UNL1       -0.1498
     12 N          66.2002   93.8302   12.0584 N.pl3   1  UNL1       -0.1936
     13 H          66.6881   94.0605   12.8819 H       1  UNL1        0.1758
     14 C          66.3178   94.7068   10.8469 C.ar    1  UNL1        0.1786
     15 N          65.4173   95.8548   10.4984 N.ar    1  UNL1       -0.2214
     16 C          65.8995   96.4468    9.2073 C.ar    1  UNL1        0.1079
     17 C          67.0981   95.6647    8.7578 C.ar    1  UNL1        0.0588
     18 S          67.3565   94.5893    9.7712 S.2     1  UNL1       -0.0497
     19 N          61.8949   87.6928   11.8424 N.pl3   1  UNL1       -0.3319
     20 H          61.2174   87.5419   12.5406 H       1  UNL1        0.1468
     21 C          62.0661   86.6951   10.7355 C.3     1  UNL1        0.0885
     22 C          62.7566   85.3904   11.0018 C.3     1  UNL1        0.0379
     23 C          63.2567   84.5592    9.8577 C.3     1  UNL1        0.0047
     24 C          63.9472   83.2546   10.1241 C.3     1  UNL1        0.0199
     25 C          64.1376   82.7811   11.5346 C.3     1  UNL1        0.1007
     26 N          63.6376   83.6122   12.6787 N.3     1  UNL1       -0.1697
     27 O          63.8280   83.1387   14.0893 O.3     1  UNL1       -0.3109
     28 C          62.9471   84.9169   12.4124 C.3     1  UNL1        0.1023
     29 H          64.2882   82.2849   14.0843 H       1  UNL1        0.2366
@<TRIPOS>BOND
     1     9    10    2
     2    10    11    2
     3    10    12    1
     4    12    14    1
     5    14    15   ar
     6    15    16   ar
     7    16    17   ar
     8    17    18   ar
     9    10     1    1
    10     1     2   ar
    11     2     3   ar
    12     3     4    1
    13     3     5   ar
    14     5    19    1
    15    19    21    1
    16    22    21    1
    17    22    23    1
    18    23    24    1
    19    24    25    1
    20    25    26    1
    21    26    27    1
    22    26    28    1
    23     5     6   ar
    24     6     7   ar
    25     7     8    1
    26    18    14   ar
    27     7     1   ar
    28    28    22    1
    29    12    13    1
    30    19    20    1
    31    27    29    1
@<TRIPOS>MOLECULE
*****
 29 31 0 0 0
SMALL
GASTEIGER

@<TRIPOS>ATOM
      1 C          64.3814   90.0336   14.2417 C.ar    1  UNL1        0.1534
      2 C          64.6091   88.6912   14.8711 C.ar    1  UNL1        0.0351
      3 C          64.1134   87.4499   14.1903 C.ar    1  UNL1        0.0722
      4 CL         64.3411   86.1075   14.8197 Cl      1  UNL1       -0.0809
      5 C          63.3902   87.5510   12.8801 C.ar    1  UNL1        0.0577
      6 C          63.1625   88.8934   12.2507 C.ar    1  UNL1        0.0462
      7 C          63.6582   90.1347   12.9315 C.ar    1  UNL1        0.1602
      8 F          63.4305   91.4771   12.3021 F       1  UNL1       -0.2027
      9 O          66.1454   91.2060   14.1247 O.2     1  UNL1       -0.1498
     10 S          64.8771   91.2749   14.9225 S.O2    1  UNL1        0.0772
     11 O          63.6088   91.3438   15.7204 O.2     1  UNL1       -0.1498
     12 N          65.3728   92.5162   15.6033 N.pl3   1  UNL1       -0.1936
     13 H          64.7307   93.1684   15.9661 H       1  UNL1        0.1758
     14 C          66.8467   92.7638   15.7312 C.ar    1  UNL1        0.1786
     15 N          67.8117   91.9449   16.5362 N.ar    1  UNL1       -0.2214
     16 C          69.1757   92.5488   16.3791 C.ar    1  UNL1        0.1079
     17 C          69.0538   93.7410   15.4770 C.ar    1  UNL1        0.0588
     18 S          67.6142   93.8739   15.0766 S.2     1  UNL1       -0.0497
     19 N          62.8945   86.3097   12.1993 N.pl3   1  UNL1       -0.3319
     20 H          63.4403   85.4904   12.2113 H       1  UNL1        0.1468
     21 C          61.5674   86.3166   11.5003 C.3     1  UNL1        0.0885
     22 C          61.4944   86.0449   10.0269 C.3     1  UNL1        0.0379
     23 C          62.6476   85.3890    9.3271 C.3     1  UNL1        0.0047
     24 C          62.5745   85.1173    7.8538 C.3     1  UNL1        0.0199
     25 C          61.3481   85.5015    7.0802 C.3     1  UNL1        0.1007
     26 N          60.1949   86.1573    7.7800 N.3     1  UNL1       -0.1697
     27 O          58.9685   86.5415    7.0064 O.3     1  UNL1       -0.3109
     28 C          60.2680   86.4290    9.2533 C.3     1  UNL1        0.1023
     29 H          59.0844   86.2978    6.0747 H       1  UNL1        0.2366
@<TRIPOS>BOND
     1     9    10    2
     2    10    11    2
     3    10    12    1
     4    12    14    1
     5    14    15   ar
     6    15    16   ar
     7    16    17   ar
     8    17    18   ar
     9    10     1    1
    10     1     2   ar
    11     2     3   ar
    12     3     4    1
    13     3     5   ar
    14     5    19    1
    15    19    21    1
    16    22    21    1
    17    22    23    1
    18    23    24    1
    19    24    25    1
    20    25    26    1
    21    26    27    1
    22    26    28    1
    23     5     6   ar
    24     6     7   ar
    25     7     8    1
    26    18    14   ar
    27     7     1   ar
    28    28    22    1
    29    12    13    1
    30    19    20    1
    31    27    29    1
