@<TRIPOS>MOLECULE
*****
 33 37 0 0 0
SMALL
GASTEIGER

@<TRIPOS>ATOM
      1 C          62.7405   87.2608   11.7792 C.2     1  UNL1        0.2506
      2 O          63.3938   87.3706   13.1250 O.2     1  UNL1       -0.2699
      3 N          61.9291   88.4031   11.2439 N.am    1  UNL1       -0.2723
      4 C          61.2758   88.2933    9.8982 C.3     1  UNL1        0.1257
      5 C          60.4644   89.4358    9.3629 C.3     1  UNL1        0.1637
      6 O          60.3063   90.6880   10.1734 O.3     1  UNL1       -0.3502
      7 C          60.9596   90.7978   11.5191 C.3     1  UNL1        0.1622
      8 C          61.7710   89.6554   12.0544 C.3     1  UNL1        0.1096
      9 C          62.8049   84.8613    7.1707 C.3     1  UNL1        0.0310
     10 C          62.9308   84.8088    8.6645 C.ar    1  UNL1       -0.0216
     11 C          63.2149   83.5041    9.3478 C.ar    1  UNL1       -0.0026
     12 C          63.3408   83.4516   10.8415 C.ar    1  UNL1        0.0207
     13 C          63.1827   84.7038   11.6520 C.ar    1  UNL1        0.1072
     14 C          62.8987   86.0085   10.9687 C.ar    1  UNL1        0.0726
     15 C          62.7727   86.0610    9.4750 C.ar    1  UNL1        0.0018
     16 N          63.3087   84.6512   13.1458 N.ar    1  UNL1       -0.1477
     17 N          64.5919   84.6268   13.9221 N.ar    1  UNL1       -0.1447
     18 C          64.2499   84.5744   15.3817 C.ar    1  UNL1        0.1446
     19 C          62.7552   84.5664   15.5074 C.ar    1  UNL1        0.1446
     20 N          62.1735   84.6139   14.1256 N.ar    1  UNL1       -0.1447
     21 C          62.4243   89.7653   13.4002 C.3     1  UNL1        0.0496
     22 C          63.6385   90.6282   13.5763 C.ar    1  UNL1       -0.0083
     23 C          64.2601   91.2997   12.3878 C.ar    1  UNL1        0.0175
     24 C          65.4744   92.1626   12.5638 C.ar    1  UNL1        0.1026
     25 C          66.0670   92.3540   13.9284 C.ar    1  UNL1        0.0218
     26 C          65.4454   91.6824   15.1170 C.ar    1  UNL1        0.0127
     27 C          64.2312   90.8195   14.9409 C.ar    1  UNL1        0.0538
     28 CL         63.6096   90.1480   16.1294 Cl      1  UNL1       -0.0826
     29 N          66.0960   92.8342   11.3753 N.ar    1  UNL1       -0.1478
     30 N          65.5323   94.0083   10.6312 N.ar    1  UNL1       -0.1447
     31 C          66.4783   94.3493    9.5182 C.ar    1  UNL1        0.1446
     32 C          67.6267   93.3859    9.5744 C.ar    1  UNL1        0.1446
     33 N          67.3904   92.4495   10.7221 N.ar    1  UNL1       -0.1447
@<TRIPOS>BOND
     1     9    10    1
     2    10    11   ar
     3    11    12   ar
     4    12    13   ar
     5    13    16    1
     6    16    17   ar
     7    17    18   ar
     8    18    19   ar
     9    19    20   ar
    10    13    14   ar
    11    14     1    1
    12     1     2    2
    13     1     3   am
    14     3     4    1
    15     4     5    1
    16     5     6    1
    17     6     7    1
    18     7     8    1
    19     8    21    1
    20    21    22    1
    21    22    23   ar
    22    23    24   ar
    23    24    29    1
    24    29    30   ar
    25    30    31   ar
    26    31    32   ar
    27    32    33   ar
    28    24    25   ar
    29    25    26   ar
    30    26    27   ar
    31    27    28    1
    32    14    15   ar
    33    15    10   ar
    34    20    16   ar
    35     8     3    1
    36    27    22   ar
    37    33    29   ar
@<TRIPOS>MOLECULE
*****
 33 37 0 0 0
SMALL
GASTEIGER

@<TRIPOS>ATOM
      1 C          63.5825   87.0168   13.2734 C.2     1  UNL1        0.2506
      2 O          64.2458   87.5067   14.5263 O.2     1  UNL1       -0.2699
      3 N          63.0818   87.9992   12.2564 N.am    1  UNL1       -0.2723
      4 C          62.4185   87.5092   11.0035 C.3     1  UNL1        0.1257
      5 C          61.9178   88.4917    9.9865 C.3     1  UNL1        0.1637
      6 O          62.0804   89.9640   10.2226 O.3     1  UNL1       -0.3502
      7 C          62.7437   90.4540   11.4755 C.3     1  UNL1        0.1622
      8 C          63.2444   89.4716   12.4925 C.3     1  UNL1        0.1096
      9 C          63.6900   82.9358   10.0587 C.3     1  UNL1        0.0310
     10 C          63.4736   83.5039   11.4300 C.ar    1  UNL1       -0.0216
     11 C          63.0947   82.5997   12.5652 C.ar    1  UNL1       -0.0026
     12 C          62.8783   83.1679   13.9365 C.ar    1  UNL1        0.0207
     13 C          63.0409   84.6402   14.1725 C.ar    1  UNL1        0.1072
     14 C          63.4199   85.5444   13.0373 C.ar    1  UNL1        0.0726
     15 C          63.6362   84.9763   11.6660 C.ar    1  UNL1        0.0018
     16 N          62.8245   85.2083   15.5438 N.ar    1  UNL1       -0.1477
     17 N          61.4984   85.5378   16.1625 N.ar    1  UNL1       -0.1447
     18 C          61.7506   86.0799   17.5383 C.ar    1  UNL1        0.1446
     19 C          63.2326   86.0854   17.7698 C.ar    1  UNL1        0.1446
     20 N          63.8963   85.5467   16.5372 N.ar    1  UNL1       -0.1447
     21 C          63.9078   89.9615   13.7454 C.3     1  UNL1        0.0496
     22 C          64.8569   91.1216   13.6872 C.ar    1  UNL1       -0.0083
     23 C          65.4991   91.5005   12.3858 C.ar    1  UNL1        0.0175
     24 C          66.4483   92.6606   12.3275 C.ar    1  UNL1        0.1026
     25 C          66.7552   93.4417   13.5708 C.ar    1  UNL1        0.0218
     26 C          66.1130   93.0626   14.8723 C.ar    1  UNL1        0.0127
     27 C          65.1638   91.9026   14.9305 C.ar    1  UNL1        0.0538
     28 CL         64.5216   91.5236   16.2320 Cl      1  UNL1       -0.0826
     29 N          67.0905   93.0396   11.0260 N.ar    1  UNL1       -0.1478
     30 N          67.1331   94.4162   10.4318 N.ar    1  UNL1       -0.1447
     31 C          67.8718   94.3360    9.1288 C.ar    1  UNL1        0.1446
     32 C          68.2857   92.9097    8.9176 C.ar    1  UNL1        0.1446
     33 N          67.8028   92.1085   10.0902 N.ar    1  UNL1       -0.1447
@<TRIPOS>BOND
     1     9    10    1
     2    10    11   ar
     3    11    12   ar
     4    12    13   ar
     5    13    16    1
     6    16    17   ar
     7    17    18   ar
     8    18    19   ar
     9    19    20   ar
    10    13    14   ar
    11    14     1    1
    12     1     2    2
    13     1     3   am
    14     3     4    1
    15     4     5    1
    16     5     6    1
    17     6     7    1
    18     7     8    1
    19     8    21    1
    20    21    22    1
    21    22    23   ar
    22    23    24   ar
    23    24    29    1
    24    29    30   ar
    25    30    31   ar
    26    31    32   ar
    27    32    33   ar
    28    24    25   ar
    29    25    26   ar
    30    26    27   ar
    31    27    28    1
    32    14    15   ar
    33    15    10   ar
    34    20    16   ar
    35     8     3    1
    36    27    22   ar
    37    33    29   ar
@<TRIPOS>MOLECULE
*****
 33 37 0 0 0
SMALL
GASTEIGER

@<TRIPOS>ATOM
      1 C          63.0304   86.6388   12.5598 C.2     1  UNL1        0.2506
      2 O          63.5994   87.5307   13.6232 O.2     1  UNL1       -0.2699
      3 N          62.1003   87.2024   11.5268 N.am    1  UNL1       -0.2723
      4 C          61.5314   86.3105   10.4634 C.3     1  UNL1        0.1257
      5 C          60.6012   86.8741    9.4304 C.3     1  UNL1        0.1637
      6 O          60.2400   88.3297    9.4607 O.3     1  UNL1       -0.3502
      7 C          60.8089   89.2216   10.5241 C.3     1  UNL1        0.1622
      8 C          61.7391   88.6580   11.5572 C.3     1  UNL1        0.1096
      9 C          64.3479   82.3841    9.8837 C.3     1  UNL1        0.0310
     10 C          64.0504   83.0559   11.1914 C.ar    1  UNL1       -0.0216
     11 C          64.1142   82.2722   12.4688 C.ar    1  UNL1       -0.0026
     12 C          63.8167   82.9440   13.7765 C.ar    1  UNL1        0.0207
     13 C          63.4554   84.3995   13.8069 C.ar    1  UNL1        0.1072
     14 C          63.3917   85.1832   12.5295 C.ar    1  UNL1        0.0726
     15 C          63.6892   84.5114   11.2218 C.ar    1  UNL1        0.0018
     16 N          63.1580   85.0713   15.1146 N.ar    1  UNL1       -0.1477
     17 N          64.1380   85.8311   15.9586 N.ar    1  UNL1       -0.1447
     18 C          63.4139   86.3307   17.1736 C.ar    1  UNL1        0.1446
     19 C          61.9864   85.8796   17.0805 C.ar    1  UNL1        0.1446
     20 N          61.8282   85.1013   15.8080 N.ar    1  UNL1       -0.1447
     21 C          62.3080   89.5499   12.6205 C.3     1  UNL1        0.0496
     22 C          63.4190   90.5008   12.2866 C.ar    1  UNL1       -0.0083
     23 C          64.4483   90.8448   13.3220 C.ar    1  UNL1        0.0175
     24 C          65.5593   91.7957   12.9880 C.ar    1  UNL1        0.1026
     25 C          65.6410   92.4025   11.6187 C.ar    1  UNL1        0.0218
     26 C          64.6116   92.0584   10.5833 C.ar    1  UNL1        0.0127
     27 C          63.5006   91.1076   10.9172 C.ar    1  UNL1        0.0538
     28 CL         62.4713   90.7635    9.8818 Cl      1  UNL1       -0.0826
     29 N          66.5887   92.1397   14.0234 N.ar    1  UNL1       -0.1478
     30 N          68.0566   92.3279   13.7788 N.ar    1  UNL1       -0.1447
     31 C          68.7060   92.6605   15.0894 C.ar    1  UNL1        0.1446
     32 C          67.6394   92.6778   16.1441 C.ar    1  UNL1        0.1446
     33 N          66.3308   92.3560   15.4852 N.ar    1  UNL1       -0.1447
@<TRIPOS>BOND
     1     9    10    1
     2    10    11   ar
     3    11    12   ar
     4    12    13   ar
     5    13    16    1
     6    16    17   ar
     7    17    18   ar
     8    18    19   ar
     9    19    20   ar
    10    13    14   ar
    11    14     1    1
    12     1     2    2
    13     1     3   am
    14     3     4    1
    15     4     5    1
    16     5     6    1
    17     6     7    1
    18     7     8    1
    19     8    21    1
    20    21    22    1
    21    22    23   ar
    22    23    24   ar
    23    24    29    1
    24    29    30   ar
    25    30    31   ar
    26    31    32   ar
    27    32    33   ar
    28    24    25   ar
    29    25    26   ar
    30    26    27   ar
    31    27    28    1
    32    14    15   ar
    33    15    10   ar
    34    20    16   ar
    35     8     3    1
    36    27    22   ar
    37    33    29   ar
@<TRIPOS>MOLECULE
*****
 33 37 0 0 0
SMALL
GASTEIGER

@<TRIPOS>ATOM
      1 C          62.5622   88.7349   11.6371 C.2     1  UNL1        0.2506
      2 O          62.4055   90.2265   11.6104 O.2     1  UNL1       -0.2699
      3 N          63.2935   88.0778   12.7700 N.am    1  UNL1       -0.2723
      4 C          63.4503   86.5863   12.7967 C.3     1  UNL1        0.1257
      5 C          64.1816   85.9291   13.9296 C.3     1  UNL1        0.1637
      6 O          64.7562   86.7636   15.0357 O.3     1  UNL1       -0.3502
      7 C          64.5994   88.2551   15.0090 C.3     1  UNL1        0.1622
      8 C          63.8681   88.9122   13.8762 C.3     1  UNL1        0.1096
      9 C          63.1448   85.0821    7.9878 C.3     1  UNL1        0.0310
     10 C          62.2790   86.0741    8.7063 C.ar    1  UNL1       -0.0216
     11 C          60.8386   86.2317    8.3186 C.ar    1  UNL1       -0.0026
     12 C          59.9727   87.2237    9.0371 C.ar    1  UNL1        0.0207
     13 C          60.5472   88.0581   10.1432 C.ar    1  UNL1        0.1072
     14 C          61.9876   87.9005   10.5309 C.ar    1  UNL1        0.0726
     15 C          62.8535   86.9085    9.8124 C.ar    1  UNL1        0.0018
     16 N          59.6813   89.0501   10.8617 N.ar    1  UNL1       -0.1477
     17 N          58.8164   88.7651   12.0536 N.ar    1  UNL1       -0.1447
     18 C          58.1288   90.0401   12.4430 C.ar    1  UNL1        0.1446
     19 C          58.5689   91.1132   11.4917 C.ar    1  UNL1        0.1446
     20 N          59.5284   90.5013   10.5145 N.ar    1  UNL1       -0.1447
     21 C          63.7114   90.4038   13.8495 C.3     1  UNL1        0.0496
     22 C          64.9249   91.2851   13.8259 C.ar    1  UNL1       -0.0083
     23 C          65.5990   91.5985   12.5231 C.ar    1  UNL1        0.0175
     24 C          66.8126   92.4799   12.4995 C.ar    1  UNL1        0.1026
     25 C          67.3520   93.0479   13.7787 C.ar    1  UNL1        0.0218
     26 C          66.6778   92.7345   15.0816 C.ar    1  UNL1        0.0127
     27 C          65.4643   91.8531   15.1051 C.ar    1  UNL1        0.0538
     28 CL         64.7902   91.5398   16.4079 Cl      1  UNL1       -0.0826
     29 N          67.4867   92.7932   11.1967 N.ar    1  UNL1       -0.1478
     30 N          67.2852   94.0320   10.3753 N.ar    1  UNL1       -0.1447
     31 C          68.1546   93.9272    9.1575 C.ar    1  UNL1        0.1446
     32 C          68.8935   92.6236    9.2262 C.ar    1  UNL1        0.1446
     33 N          68.4807   91.9227   10.4865 N.ar    1  UNL1       -0.1447
@<TRIPOS>BOND
     1     9    10    1
     2    10    11   ar
     3    11    12   ar
     4    12    13   ar
     5    13    16    1
     6    16    17   ar
     7    17    18   ar
     8    18    19   ar
     9    19    20   ar
    10    13    14   ar
    11    14     1    1
    12     1     2    2
    13     1     3   am
    14     3     4    1
    15     4     5    1
    16     5     6    1
    17     6     7    1
    18     7     8    1
    19     8    21    1
    20    21    22    1
    21    22    23   ar
    22    23    24   ar
    23    24    29    1
    24    29    30   ar
    25    30    31   ar
    26    31    32   ar
    27    32    33   ar
    28    24    25   ar
    29    25    26   ar
    30    26    27   ar
    31    27    28    1
    32    14    15   ar
    33    15    10   ar
    34    20    16   ar
    35     8     3    1
    36    27    22   ar
    37    33    29   ar
@<TRIPOS>MOLECULE
*****
 33 37 0 0 0
SMALL
GASTEIGER

@<TRIPOS>ATOM
      1 C          62.6699   88.2139   10.9810 C.2     1  UNL1        0.2506
      2 O          63.0349   89.6570   10.7957 O.2     1  UNL1       -0.2699
      3 N          63.1130   87.4803   12.2121 N.am    1  UNL1       -0.2723
      4 C          62.7480   86.0372   12.3974 C.3     1  UNL1        0.1257
      5 C          63.1911   85.3036   13.6285 C.3     1  UNL1        0.1637
      6 O          63.9991   86.0131   14.6742 O.3     1  UNL1       -0.3502
      7 C          64.3641   87.4562   14.4890 C.3     1  UNL1        0.1622
      8 C          63.9211   88.1898   13.2579 C.3     1  UNL1        0.1096
      9 C          62.3634   84.7810    7.0924 C.3     1  UNL1        0.0310
     10 C          61.7086   85.7880    7.9909 C.ar    1  UNL1       -0.0216
     11 C          60.2458   86.0855    7.8436 C.ar    1  UNL1       -0.0026
     12 C          59.5911   87.0925    8.7421 C.ar    1  UNL1        0.0207
     13 C          60.3991   87.8019    9.7879 C.ar    1  UNL1        0.1072
     14 C          61.8618   87.5044    9.9352 C.ar    1  UNL1        0.0726
     15 C          62.5166   86.4974    9.0367 C.ar    1  UNL1        0.0018
     16 N          59.7443   88.8089   10.6863 N.ar    1  UNL1       -0.1477
     17 N          59.6025   90.2765   10.4102 N.ar    1  UNL1       -0.1447
     18 C          58.8870   90.8997   11.5719 C.ar    1  UNL1        0.1446
     19 C          58.5865   89.8174   12.5660 C.ar    1  UNL1        0.1446
     20 N          59.1164   88.5252   12.0187 N.ar    1  UNL1       -0.1447
     21 C          64.2861   89.6328   13.0726 C.3     1  UNL1        0.0496
     22 C          64.6239   90.4799   14.2635 C.ar    1  UNL1       -0.0083
     23 C          65.9331   91.2100   14.3175 C.ar    1  UNL1        0.0175
     24 C          66.2709   92.0571   15.5084 C.ar    1  UNL1        0.1026
     25 C          65.2995   92.1741   16.6454 C.ar    1  UNL1        0.0218
     26 C          63.9903   91.4439   16.5914 C.ar    1  UNL1        0.0127
     27 C          63.6525   90.5969   15.4005 C.ar    1  UNL1        0.0538
     28 CL         62.3433   89.8668   15.3466 Cl      1  UNL1       -0.0826
     29 N          67.5801   92.7872   15.5624 N.ar    1  UNL1       -0.1478
     30 N          68.8063   92.4588   14.7633 N.ar    1  UNL1       -0.1447
     31 C          69.8770   93.4425   15.1319 C.ar    1  UNL1        0.1446
     32 C          69.3125   94.3789   16.1589 C.ar    1  UNL1        0.1446
     33 N          67.8930   93.9739   16.4249 N.ar    1  UNL1       -0.1447
@<TRIPOS>BOND
     1     9    10    1
     2    10    11   ar
     3    11    12   ar
     4    12    13   ar
     5    13    16    1
     6    16    17   ar
     7    17    18   ar
     8    18    19   ar
     9    19    20   ar
    10    13    14   ar
    11    14     1    1
    12     1     2    2
    13     1     3   am
    14     3     4    1
    15     4     5    1
    16     5     6    1
    17     6     7    1
    18     7     8    1
    19     8    21    1
    20    21    22    1
    21    22    23   ar
    22    23    24   ar
    23    24    29    1
    24    29    30   ar
    25    30    31   ar
    26    31    32   ar
    27    32    33   ar
    28    24    25   ar
    29    25    26   ar
    30    26    27   ar
    31    27    28    1
    32    14    15   ar
    33    15    10   ar
    34    20    16   ar
    35     8     3    1
    36    27    22   ar
    37    33    29   ar
@<TRIPOS>MOLECULE
*****
 33 37 0 0 0
SMALL
GASTEIGER

@<TRIPOS>ATOM
      1 C          62.3311   84.6392   12.2553 C.2     1  UNL1        0.2506
      2 O          61.7075   85.6764   13.1415 O.2     1  UNL1       -0.2699
      3 N          62.6245   84.9580   10.8193 N.am    1  UNL1       -0.2723
      4 C          63.2482   83.9208    9.9331 C.3     1  UNL1        0.1257
      5 C          63.5415   84.2396    8.4970 C.3     1  UNL1        0.1637
      6 O          63.2113   85.5955    7.9471 O.3     1  UNL1       -0.3502
      7 C          62.5876   86.6326    8.8333 C.3     1  UNL1        0.1622
      8 C          62.2942   86.3139   10.2693 C.3     1  UNL1        0.1096
      9 C          62.7023   79.4951   11.6231 C.3     1  UNL1        0.0310
     10 C          62.8470   80.7112   12.4891 C.ar    1  UNL1       -0.0216
     11 C          63.3219   80.5715   13.9050 C.ar    1  UNL1       -0.0026
     12 C          63.4666   81.7876   14.7711 C.ar    1  UNL1        0.0207
     13 C          63.1363   83.1435   14.2212 C.ar    1  UNL1        0.1072
     14 C          62.6614   83.2833   12.8053 C.ar    1  UNL1        0.0726
     15 C          62.5167   82.0671   11.9392 C.ar    1  UNL1        0.0018
     16 N          63.2810   84.3597   15.0872 N.ar    1  UNL1       -0.1477
     17 N          64.4030   85.3537   15.0311 N.ar    1  UNL1       -0.1447
     18 C          64.1445   86.4037   16.0706 C.ar    1  UNL1        0.1446
     19 C          62.8628   86.0587   16.7693 C.ar    1  UNL1        0.1446
     20 N          62.3291   84.7954   16.1615 N.ar    1  UNL1       -0.1447
     21 C          61.6706   87.3511   11.1555 C.3     1  UNL1        0.0496
     22 C          62.1980   88.7553   11.1528 C.ar    1  UNL1       -0.0083
     23 C          63.1093   89.2162   12.2514 C.ar    1  UNL1        0.0175
     24 C          63.6368   90.6204   12.2487 C.ar    1  UNL1        0.1026
     25 C          63.2530   91.5637   11.1474 C.ar    1  UNL1        0.0218
     26 C          62.3416   91.1027   10.0487 C.ar    1  UNL1        0.0127
     27 C          61.8142   89.6985   10.0514 C.ar    1  UNL1        0.0538
     28 CL         60.9028   89.2376    8.9528 Cl      1  UNL1       -0.0826
     29 N          64.5482   91.0814   13.3473 N.ar    1  UNL1       -0.1478
     30 N          64.1861   91.2103   14.7972 N.ar    1  UNL1       -0.1447
     31 C          65.3957   91.7029   15.5350 C.ar    1  UNL1        0.1446
     32 C          66.5054   91.8784   14.5409 C.ar    1  UNL1        0.1446
     33 N          65.9815   91.4943   13.1889 N.ar    1  UNL1       -0.1447
@<TRIPOS>BOND
     1     9    10    1
     2    10    11   ar
     3    11    12   ar
     4    12    13   ar
     5    13    16    1
     6    16    17   ar
     7    17    18   ar
     8    18    19   ar
     9    19    20   ar
    10    13    14   ar
    11    14     1    1
    12     1     2    2
    13     1     3   am
    14     3     4    1
    15     4     5    1
    16     5     6    1
    17     6     7    1
    18     7     8    1
    19     8    21    1
    20    21    22    1
    21    22    23   ar
    22    23    24   ar
    23    24    29    1
    24    29    30   ar
    25    30    31   ar
    26    31    32   ar
    27    32    33   ar
    28    24    25   ar
    29    25    26   ar
    30    26    27   ar
    31    27    28    1
    32    14    15   ar
    33    15    10   ar
    34    20    16   ar
    35     8     3    1
    36    27    22   ar
    37    33    29   ar
@<TRIPOS>MOLECULE
*****
 33 37 0 0 0
SMALL
GASTEIGER

@<TRIPOS>ATOM
      1 C          63.2722   87.6135   12.9172 C.2     1  UNL1        0.2506
      2 O          63.2349   88.3865   11.6323 O.2     1  UNL1       -0.2699
      3 N          63.2907   88.3401   14.2293 N.am    1  UNL1       -0.2723
      4 C          63.3280   87.5671   15.5143 C.3     1  UNL1        0.1257
      5 C          63.3465   88.2938   16.8264 C.3     1  UNL1        0.1637
      6 O          63.3277   89.7934   16.8536 O.3     1  UNL1       -0.3502
      7 C          63.2904   90.5664   15.5687 C.3     1  UNL1        0.1622
      8 C          63.2719   89.8398   14.2566 C.3     1  UNL1        0.1096
      9 C          64.9100   83.0970   14.8969 C.3     1  UNL1        0.0310
     10 C          64.1099   83.8556   13.8799 C.ar    1  UNL1       -0.0216
     11 C          63.3286   83.1146   12.8357 C.ar    1  UNL1       -0.0026
     12 C          62.5284   83.8732   11.8187 C.ar    1  UNL1        0.0207
     13 C          62.5096   85.3728   11.8458 C.ar    1  UNL1        0.1072
     14 C          63.2909   86.1138   12.8900 C.ar    1  UNL1        0.0726
     15 C          64.0911   85.3552   13.9070 C.ar    1  UNL1        0.0018
     16 N          61.7095   86.1314   10.8288 N.ar    1  UNL1       -0.1477
     17 N          60.5597   87.0502   11.1183 N.ar    1  UNL1       -0.1447
     18 C          60.0582   87.5910    9.8122 C.ar    1  UNL1        0.1446
     19 C          60.8981   87.0065    8.7154 C.ar    1  UNL1        0.1446
     20 N          61.9186   86.1044    9.3437 N.ar    1  UNL1       -0.1447
     21 C          63.2346   90.6128   12.9716 C.3     1  UNL1        0.0496
     22 C          64.4118   91.4487   12.5648 C.ar    1  UNL1       -0.0083
     23 C          65.4732   91.7882   13.5687 C.ar    1  UNL1        0.0175
     24 C          66.6505   92.6241   13.1619 C.ar    1  UNL1        0.1026
     25 C          66.7662   93.1205   11.7511 C.ar    1  UNL1        0.0218
     26 C          65.7046   92.7809   10.7472 C.ar    1  UNL1        0.0127
     27 C          64.5275   91.9450   11.1540 C.ar    1  UNL1        0.0538
     28 CL         63.4660   91.6055   10.1501 Cl      1  UNL1       -0.0826
     29 N          67.7120   92.9637   14.1659 N.ar    1  UNL1       -0.1478
     30 N          67.5453   93.8619   15.3555 N.ar    1  UNL1       -0.1447
     31 C          68.8568   93.9180   16.0813 C.ar    1  UNL1        0.1446
     32 C          69.8341   93.0544   15.3402 C.ar    1  UNL1        0.1446
     33 N          69.1265   92.4646   14.1564 N.ar    1  UNL1       -0.1447
@<TRIPOS>BOND
     1     9    10    1
     2    10    11   ar
     3    11    12   ar
     4    12    13   ar
     5    13    16    1
     6    16    17   ar
     7    17    18   ar
     8    18    19   ar
     9    19    20   ar
    10    13    14   ar
    11    14     1    1
    12     1     2    2
    13     1     3   am
    14     3     4    1
    15     4     5    1
    16     5     6    1
    17     6     7    1
    18     7     8    1
    19     8    21    1
    20    21    22    1
    21    22    23   ar
    22    23    24   ar
    23    24    29    1
    24    29    30   ar
    25    30    31   ar
    26    31    32   ar
    27    32    33   ar
    28    24    25   ar
    29    25    26   ar
    30    26    27   ar
    31    27    28    1
    32    14    15   ar
    33    15    10   ar
    34    20    16   ar
    35     8     3    1
    36    27    22   ar
    37    33    29   ar
@<TRIPOS>MOLECULE
*****
 33 37 0 0 0
SMALL
GASTEIGER

@<TRIPOS>ATOM
      1 C          60.3986   93.7750   -2.0110 C.2     1  UNL1        0.2506
      2 O          61.6487   92.9664   -1.8282 O.2     1  UNL1       -0.2699
      3 N          60.0122   94.8005   -0.9868 N.am    1  UNL1       -0.2723
      4 C          58.7621   95.6091   -1.1696 C.3     1  UNL1        0.1257
      5 C          58.3758   96.6347   -0.1453 C.3     1  UNL1        0.1637
      6 O          59.2396   96.8516    1.0616 O.3     1  UNL1       -0.3502
      7 C          60.4897   96.0430    1.2444 C.3     1  UNL1        0.1622
      8 C          60.8760   95.0175    0.2202 C.3     1  UNL1        0.1096
      9 C          56.1841   91.6769   -4.2102 C.3     1  UNL1        0.0310
     10 C          57.4276   92.5089   -4.3176 C.ar    1  UNL1       -0.0216
     11 C          57.8072   93.1240   -5.6319 C.ar    1  UNL1       -0.0026
     12 C          59.0507   93.9561   -5.7393 C.ar    1  UNL1        0.0207
     13 C          59.9144   94.1731   -4.5324 C.ar    1  UNL1        0.1072
     14 C          59.5348   93.5580   -3.2180 C.ar    1  UNL1        0.0726
     15 C          58.2914   92.7259   -3.1106 C.ar    1  UNL1        0.0018
     16 N          61.1579   95.0051   -4.6397 N.ar    1  UNL1       -0.1477
     17 N          62.4589   94.5719   -5.2478 N.ar    1  UNL1       -0.1447
     18 C          63.4237   95.7156   -5.1418 C.ar    1  UNL1        0.1446
     19 C          62.7190   96.8556   -4.4682 C.ar    1  UNL1        0.1446
     20 N          61.3187   96.4165   -4.1579 N.ar    1  UNL1       -0.1447
     21 C          62.1262   94.2089    0.4030 C.3     1  UNL1        0.0496
     22 C          62.2254   93.2263    1.5319 C.ar    1  UNL1       -0.0083
     23 C          61.0043   92.8727    2.3280 C.ar    1  UNL1        0.0175
     24 C          61.1036   91.8900    3.4570 C.ar    1  UNL1        0.1026
     25 C          62.4240   91.2609    3.7898 C.ar    1  UNL1        0.0218
     26 C          63.6451   91.6145    2.9936 C.ar    1  UNL1        0.0127
     27 C          63.5458   92.5971    1.8647 C.ar    1  UNL1        0.0538
     28 CL         64.7669   92.9506    1.0686 Cl      1  UNL1       -0.0826
     29 N          59.8824   91.5365    4.2531 N.ar    1  UNL1       -0.1478
     30 N          59.8133   90.5260    5.3594 N.ar    1  UNL1       -0.1447
     31 C          58.4042   90.4964    5.8728 C.ar    1  UNL1        0.1446
     32 C          57.6024   91.4887    5.0837 C.ar    1  UNL1        0.1446
     33 N          58.5161   92.1315    4.0827 N.ar    1  UNL1       -0.1447
@<TRIPOS>BOND
     1     9    10    1
     2    10    11   ar
     3    11    12   ar
     4    12    13   ar
     5    13    16    1
     6    16    17   ar
     7    17    18   ar
     8    18    19   ar
     9    19    20   ar
    10    13    14   ar
    11    14     1    1
    12     1     2    2
    13     1     3   am
    14     3     4    1
    15     4     5    1
    16     5     6    1
    17     6     7    1
    18     7     8    1
    19     8    21    1
    20    21    22    1
    21    22    23   ar
    22    23    24   ar
    23    24    29    1
    24    29    30   ar
    25    30    31   ar
    26    31    32   ar
    27    32    33   ar
    28    24    25   ar
    29    25    26   ar
    30    26    27   ar
    31    27    28    1
    32    14    15   ar
    33    15    10   ar
    34    20    16   ar
    35     8     3    1
    36    27    22   ar
    37    33    29   ar
@<TRIPOS>MOLECULE
*****
 33 37 0 0 0
SMALL
GASTEIGER

@<TRIPOS>ATOM
      1 C          59.2846   93.3661   -2.5891 C.2     1  UNL1        0.2506
      2 O          60.6508   92.7469   -2.5788 O.2     1  UNL1       -0.2699
      3 N          58.9816   94.5293   -1.6918 N.am    1  UNL1       -0.2723
      4 C          57.6154   95.1485   -1.7020 C.3     1  UNL1        0.1257
      5 C          57.3124   96.3117   -0.8047 C.3     1  UNL1        0.1637
      6 O          58.3756   96.8556    0.1029 O.3     1  UNL1       -0.3502
      7 C          59.7418   96.2364    0.1132 C.3     1  UNL1        0.1622
      8 C          60.0448   95.0733   -0.7841 C.3     1  UNL1        0.1096
      9 C          55.3456   90.0878   -3.4471 C.3     1  UNL1        0.0310
     10 C          56.2519   91.1830   -3.9257 C.ar    1  UNL1       -0.0216
     11 C          56.0952   91.7342   -5.3119 C.ar    1  UNL1       -0.0026
     12 C          57.0015   92.8293   -5.7905 C.ar    1  UNL1        0.0207
     13 C          58.0647   93.3733   -4.8829 C.ar    1  UNL1        0.1072
     14 C          58.2215   92.8221   -3.4967 C.ar    1  UNL1        0.0726
     15 C          57.3151   91.7269   -3.0181 C.ar    1  UNL1        0.0018
     16 N          58.9710   94.4685   -5.3615 N.ar    1  UNL1       -0.1477
     17 N          58.7268   95.9414   -5.2170 N.ar    1  UNL1       -0.1447
     18 C          59.8856   96.6663   -5.8348 C.ar    1  UNL1        0.1446
     19 C          60.8460   95.6414   -6.3612 C.ar    1  UNL1        0.1446
     20 N          60.2808   94.2831   -6.0687 N.ar    1  UNL1       -0.1447
     21 C          61.4110   94.4540   -0.7738 C.3     1  UNL1        0.0496
     22 C          61.8903   93.7149    0.4402 C.ar    1  UNL1       -0.0083
     23 C          60.9037   93.2267    1.4591 C.ar    1  UNL1        0.0175
     24 C          61.3830   92.4875    2.6732 C.ar    1  UNL1        0.1026
     25 C          62.8489   92.2365    2.8683 C.ar    1  UNL1        0.0218
     26 C          63.8355   92.7247    1.8493 C.ar    1  UNL1        0.0127
     27 C          63.3562   93.4639    0.6353 C.ar    1  UNL1        0.0538
     28 CL         64.3428   93.9520   -0.3836 Cl      1  UNL1       -0.0826
     29 N          60.3963   91.9994    3.6921 N.ar    1  UNL1       -0.1478
     30 N          58.9652   92.4324    3.8117 N.ar    1  UNL1       -0.1447
     31 C          58.3520   91.6931    4.9638 C.ar    1  UNL1        0.1446
     32 C          59.4041   90.8032    5.5564 C.ar    1  UNL1        0.1446
     33 N          60.6676   90.9925    4.7704 N.ar    1  UNL1       -0.1447
@<TRIPOS>BOND
     1     9    10    1
     2    10    11   ar
     3    11    12   ar
     4    12    13   ar
     5    13    16    1
     6    16    17   ar
     7    17    18   ar
     8    18    19   ar
     9    19    20   ar
    10    13    14   ar
    11    14     1    1
    12     1     2    2
    13     1     3   am
    14     3     4    1
    15     4     5    1
    16     5     6    1
    17     6     7    1
    18     7     8    1
    19     8    21    1
    20    21    22    1
    21    22    23   ar
    22    23    24   ar
    23    24    29    1
    24    29    30   ar
    25    30    31   ar
    26    31    32   ar
    27    32    33   ar
    28    24    25   ar
    29    25    26   ar
    30    26    27   ar
    31    27    28    1
    32    14    15   ar
    33    15    10   ar
    34    20    16   ar
    35     8     3    1
    36    27    22   ar
    37    33    29   ar
