@<TRIPOS>MOLECULE
*****
 40 44 0 0 0
SMALL
GASTEIGER

@<TRIPOS>ATOM
      1 C          63.9267   90.2712   13.6964 C.3     1  UNL1        0.1225
      2 O          63.4546   91.1229   12.5555 O.3     1  UNL1       -0.3559
      3 C          62.8476   90.4825   11.3426 C.3     1  UNL1        0.1441
      4 C          62.7126   88.9903   11.2704 C.3     1  UNL1        0.0589
      5 C          63.1847   88.1386   12.4113 C.3     1  UNL1        0.1466
      6 C          63.0497   86.6464   12.3392 C.ar    1  UNL1        0.0618
      7 C          62.4427   86.0060   11.1262 C.ar    1  UNL1        0.1407
      8 F          61.8809   86.5346    9.8396 F       1  UNL1       -0.2043
      9 C          62.3077   84.5138   11.0541 C.ar    1  UNL1        0.0319
     10 C          62.7797   83.6621   12.1950 C.ar    1  UNL1        0.0351
     11 C          63.3868   84.3025   13.4079 C.ar    1  UNL1        0.1737
     12 F          63.8589   83.4507   14.5489 F       1  UNL1       -0.2010
     13 C          63.5218   85.7946   13.4800 C.ar    1  UNL1        0.1655
     14 O          64.1288   86.4350   14.6931 O.3     1  UNL1       -0.4732
     15 C          64.2638   87.9272   14.7652 C.3     1  UNL1        0.2098
     16 C          63.7917   88.7790   13.6243 C.3     1  UNL1        0.0957
     17 S          62.5776   87.4982   11.1983 S.O2    1  UNL1        0.0094
     18 O          63.0326   87.4214   10.5482 O.2     1  UNL1       -0.1684
     19 O          61.1766   87.1713   11.6232 O.2     1  UNL1       -0.1684
     20 C          61.9705   86.8577    9.9853 C.ar    1  UNL1        0.1059
     21 C          60.4894   86.9316    9.7602 C.ar    1  UNL1        0.0192
     22 C          59.8823   86.2911    8.5471 C.ar    1  UNL1        0.0127
     23 C          60.7564   85.5768    7.5594 C.ar    1  UNL1        0.0578
     24 CL         60.1493   84.9364    6.3464 Cl      1  UNL1       -0.0822
     25 C          62.2376   85.5030    7.7846 C.ar    1  UNL1        0.0127
     26 C          62.8446   86.1434    8.9975 C.ar    1  UNL1        0.0192
     27 C          64.5337   90.9116   14.9094 C.3     1  UNL1        0.0550
     28 C          65.9892   91.2743   14.9170 C.3     1  UNL1        0.1534
     29 O          65.7849   93.3601   15.2446 O.2     1  UNL1       -0.1729
     30 S          66.4578   92.5102   14.2079 S.O2    1  UNL1       -0.0085
     31 O          67.1308   91.6603   13.1713 O.2     1  UNL1       -0.1729
     32 C          66.9265   93.7462   13.4988 C.3     1  UNL1        0.1681
     33 C          66.0788   94.3621   12.4256 C.3     1  UNL1        0.0978
     34 N          66.6841   94.7068   11.0972 N.3     1  UNL1       -0.2688
     35 C          66.7092   96.1326   10.6317 C.3     1  UNL1        0.0895
     36 C          67.3145   96.4774    9.3033 C.3     1  UNL1        0.0862
     37 N          67.8947   95.3964    8.4403 N.3     1  UNL1       -0.2951
     38 C          67.8696   93.9706    8.9057 C.3     1  UNL1        0.0862
     39 C          67.2643   93.6258   10.2341 C.3     1  UNL1        0.0895
     40 H          68.8733   95.6379    8.2839 H       1  UNL1        0.1233
@<TRIPOS>BOND
     1    29    30    2
     2    30    31    2
     3    30    28    1
     4    28    27    1
     5     1    27    1
     6     1     2    1
     7     2     3    1
     8     3     4    1
     9     4     5    1
    10     5    17    1
    11    17    18    2
    12    17    19    2
    13    17    20    1
    14    20    21   ar
    15    21    22   ar
    16    22    23   ar
    17    23    24    1
    18    23    25   ar
    19    25    26   ar
    20     5     6    1
    21     6     7   ar
    22     7     8    1
    23     7     9   ar
    24     9    10   ar
    25    10    11   ar
    26    11    12    1
    27    11    13   ar
    28    13    14    1
    29    14    15    1
    30    16    15    1
    31    30    32    1
    32    32    33    1
    33    33    34    1
    34    34    35    1
    35    35    36    1
    36    36    37    1
    37    37    38    1
    38    38    39    1
    39    16     1    1
    40    39    34    1
    41    16     5    1
    42    26    20   ar
    43    13     6   ar
    44    37    40    1
@<TRIPOS>MOLECULE
*****
 40 44 0 0 0
SMALL
GASTEIGER

@<TRIPOS>ATOM
      1 C          63.9445   89.1578   14.2680 C.3     1  UNL1        0.1225
      2 O          64.6335   88.1407   15.1286 O.3     1  UNL1       -0.3559
      3 C          64.5977   86.6898   14.7496 C.3     1  UNL1        0.1441
      4 C          63.8728   86.2561   13.5101 C.3     1  UNL1        0.0589
      5 C          63.1838   87.2732   12.6495 C.3     1  UNL1        0.1466
      6 C          62.4590   86.8395   11.4100 C.ar    1  UNL1        0.0618
      7 C          62.4232   85.3886   11.0310 C.ar    1  UNL1        0.1407
      8 F          62.9855   84.1383   11.6399 F       1  UNL1       -0.2043
      9 C          61.6983   84.9548    9.7915 C.ar    1  UNL1        0.0319
     10 C          61.0093   85.9720    8.9309 C.ar    1  UNL1        0.0351
     11 C          61.0451   87.4228    9.3098 C.ar    1  UNL1        0.1737
     12 F          60.3560   88.4400    8.4492 F       1  UNL1       -0.2010
     13 C          61.7699   87.8566   10.5494 C.ar    1  UNL1        0.1655
     14 O          61.8057   89.3075   10.9283 O.3     1  UNL1       -0.4732
     15 C          62.5306   89.7413   12.1679 C.3     1  UNL1        0.2098
     16 C          63.2196   88.7241   13.0285 C.3     1  UNL1        0.0957
     17 S          63.1480   85.8223   12.2705 S.O2    1  UNL1        0.0094
     18 O          63.5530   85.5945   11.6228 O.2     1  UNL1       -0.1684
     19 O          62.2834   85.1936   13.3228 O.2     1  UNL1       -0.1684
     20 C          63.1122   84.3714   11.8916 C.ar    1  UNL1        0.1059
     21 C          64.0194   83.8549   10.8146 C.ar    1  UNL1        0.0192
     22 C          63.9836   82.4039   10.4356 C.ar    1  UNL1        0.0127
     23 C          63.0404   81.4695   11.1338 C.ar    1  UNL1        0.0578
     24 CL         63.0046   80.0187   10.7549 Cl      1  UNL1       -0.0822
     25 C          62.1331   81.9861   12.2108 C.ar    1  UNL1        0.0127
     26 C          62.1690   83.4370   12.5897 C.ar    1  UNL1        0.0192
     27 C          63.9803   90.6088   14.6469 C.3     1  UNL1        0.0550
     28 C          65.2888   91.2679   14.9682 C.3     1  UNL1        0.1534
     29 O          64.7347   92.3266   13.2155 O.2     1  UNL1       -0.1729
     30 S          66.0317   92.0189   13.9033 S.O2    1  UNL1       -0.0085
     31 O          67.3287   91.7113   14.5910 O.2     1  UNL1       -0.1729
     32 C          66.7746   92.7700   12.8383 C.3     1  UNL1        0.1681
     33 C          66.2000   94.0350   12.2732 C.3     1  UNL1        0.0978
     34 N          66.7232   94.5837   10.9789 N.3     1  UNL1       -0.2688
     35 C          66.6925   96.0616   10.7238 C.3     1  UNL1        0.0895
     36 C          67.2157   96.6103    9.4295 C.3     1  UNL1        0.0862
     37 N          67.7697   95.6812    8.3904 N.3     1  UNL1       -0.2951
     38 C          67.8004   94.2034    8.6454 C.3     1  UNL1        0.0862
     39 C          67.2772   93.6546    9.9397 C.3     1  UNL1        0.0895
     40 H          68.7328   95.9706    8.2199 H       1  UNL1        0.1233
@<TRIPOS>BOND
     1    29    30    2
     2    30    31    2
     3    30    28    1
     4    28    27    1
     5     1    27    1
     6     1     2    1
     7     2     3    1
     8     3     4    1
     9     4     5    1
    10     5    17    1
    11    17    18    2
    12    17    19    2
    13    17    20    1
    14    20    21   ar
    15    21    22   ar
    16    22    23   ar
    17    23    24    1
    18    23    25   ar
    19    25    26   ar
    20     5     6    1
    21     6     7   ar
    22     7     8    1
    23     7     9   ar
    24     9    10   ar
    25    10    11   ar
    26    11    12    1
    27    11    13   ar
    28    13    14    1
    29    14    15    1
    30    16    15    1
    31    30    32    1
    32    32    33    1
    33    33    34    1
    34    34    35    1
    35    35    36    1
    36    36    37    1
    37    37    38    1
    38    38    39    1
    39    16     1    1
    40    39    34    1
    41    16     5    1
    42    26    20   ar
    43    13     6   ar
    44    37    40    1
@<TRIPOS>MOLECULE
*****
 40 44 0 0 0
SMALL
GASTEIGER

@<TRIPOS>ATOM
      1 C          59.6995   88.5726    7.9925 C.3     1  UNL1        0.1225
      2 O          59.4083   87.2177    7.4186 O.3     1  UNL1       -0.3559
      3 C          60.0124   85.9940    8.0411 C.3     1  UNL1        0.1441
      4 C          60.9077   86.1253    9.2375 C.3     1  UNL1        0.0589
      5 C          61.1989   87.4802    9.8113 C.3     1  UNL1        0.1466
      6 C          62.0942   87.6114   11.0077 C.ar    1  UNL1        0.0618
      7 C          62.6983   86.3877   11.6302 C.ar    1  UNL1        0.1407
      8 F          62.6253   84.9203   11.3275 F       1  UNL1       -0.2043
      9 C          63.5936   86.5190   12.8265 C.ar    1  UNL1        0.0319
     10 C          63.8847   87.8739   13.4004 C.ar    1  UNL1        0.0351
     11 C          63.2806   89.0976   12.7779 C.ar    1  UNL1        0.1737
     12 F          63.5717   90.4526   13.3517 F       1  UNL1       -0.2010
     13 C          62.3853   88.9664   11.5815 C.ar    1  UNL1        0.1655
     14 O          61.7812   90.1901   10.9590 O.3     1  UNL1       -0.4732
     15 C          60.8859   90.0589    9.7627 C.3     1  UNL1        0.2098
     16 C          60.5947   88.7039    9.1888 C.3     1  UNL1        0.0957
     17 S          61.8030   86.2565   10.4338 S.O2    1  UNL1        0.0094
     18 O          61.4935   85.9938   11.1199 O.2     1  UNL1       -0.1684
     19 O          62.9010   85.8720    9.4869 O.2     1  UNL1       -0.1684
     20 C          62.4072   85.0327   11.0563 C.ar    1  UNL1        0.1059
     21 C          63.4986   84.2900   10.3442 C.ar    1  UNL1        0.0192
     22 C          64.1028   83.0663   10.9667 C.ar    1  UNL1        0.0127
     23 C          63.6155   82.5853   12.3013 C.ar    1  UNL1        0.0578
     24 CL         64.2197   81.3616   12.9239 Cl      1  UNL1       -0.0822
     25 C          62.5240   83.3280   13.0134 C.ar    1  UNL1        0.0127
     26 C          61.9199   84.5517   12.3909 C.ar    1  UNL1        0.0192
     27 C          59.0953   89.7964    7.3700 C.3     1  UNL1        0.0550
     28 C          58.9418   89.8822    5.8803 C.3     1  UNL1        0.1534
     29 O          57.6460   91.4200    5.2051 O.2     1  UNL1       -0.1729
     30 S          59.1290   91.1961    5.1814 S.O2    1  UNL1       -0.0085
     31 O          60.6120   90.9722    5.1578 O.2     1  UNL1       -0.1729
     32 C          59.3163   92.5101    4.4825 C.3     1  UNL1        0.1681
     33 C          59.5543   92.5449    3.0020 C.3     1  UNL1        0.0978
     34 N          60.7823   93.2104    2.4553 N.3     1  UNL1       -0.2688
     35 C          60.6849   94.5748    1.8396 C.3     1  UNL1        0.0895
     36 C          61.9129   95.2404    1.2928 C.3     1  UNL1        0.0862
     37 N          63.2384   94.5417    1.3618 N.3     1  UNL1       -0.2951
     38 C          63.3359   93.1773    1.9774 C.3     1  UNL1        0.0862
     39 C          62.1079   92.5117    2.5242 C.3     1  UNL1        0.0895
     40 H          63.8642   95.1489    1.8910 H       1  UNL1        0.1233
@<TRIPOS>BOND
     1    29    30    2
     2    30    31    2
     3    30    28    1
     4    28    27    1
     5     1    27    1
     6     1     2    1
     7     2     3    1
     8     3     4    1
     9     4     5    1
    10     5    17    1
    11    17    18    2
    12    17    19    2
    13    17    20    1
    14    20    21   ar
    15    21    22   ar
    16    22    23   ar
    17    23    24    1
    18    23    25   ar
    19    25    26   ar
    20     5     6    1
    21     6     7   ar
    22     7     8    1
    23     7     9   ar
    24     9    10   ar
    25    10    11   ar
    26    11    12    1
    27    11    13   ar
    28    13    14    1
    29    14    15    1
    30    16    15    1
    31    30    32    1
    32    32    33    1
    33    33    34    1
    34    34    35    1
    35    35    36    1
    36    36    37    1
    37    37    38    1
    38    38    39    1
    39    16     1    1
    40    39    34    1
    41    16     5    1
    42    26    20   ar
    43    13     6   ar
    44    37    40    1
