@<TRIPOS>MOLECULE
*****
 29 31 0 0 0
SMALL
GASTEIGER

@<TRIPOS>ATOM
      1 C          58.9861   88.2860    7.1790 C.3     1  UNL1        0.0518
      2 C          59.9522   88.3196    8.3260 C.ar    1  UNL1        0.0563
      3 N          60.2950   89.6253    8.9798 N.ar    1  UNL1       -0.2524
      4 C          61.2610   89.6589   10.1269 C.ar    1  UNL1        0.0830
      5 C          61.8842   88.3868   10.6201 C.ar    1  UNL1        0.0686
      6 C          61.5414   87.0810    9.9662 C.ar    1  UNL1        0.0048
      7 C          60.5754   87.0475    8.8192 C.ar    1  UNL1        0.0072
      8 C          62.7955   88.7290   11.7613 C.2     1  UNL1        0.2509
      9 O          63.6217   87.7581   12.5516 O.2     1  UNL1       -0.2698
     10 N          62.7354   90.2127   11.9734 N.am    1  UNL1       -0.2620
     11 C          61.7871   90.7874   10.9633 C.3     1  UNL1        0.1401
     12 C          62.1646   85.8088   10.4594 C.ar    1  UNL1        0.0106
     13 C          61.8228   85.2857   11.8230 C.ar    1  UNL1        0.0017
     14 C          62.4459   84.0135   12.3162 C.ar    1  UNL1        0.0114
     15 C          63.4109   83.2645   11.4458 C.ar    1  UNL1        0.0585
     16 CL         64.0340   81.9923   11.9390 Cl      1  UNL1       -0.0822
     17 C          63.7527   83.7876   10.0821 C.ar    1  UNL1        0.0228
     18 C          63.1296   85.0598    9.5889 C.ar    1  UNL1        0.0585
     19 CL         63.4714   85.5829    8.2253 Cl      1  UNL1       -0.0822
     20 C          60.2325   85.7417    8.1653 C.3     1  UNL1        0.0934
     21 N          60.7647   85.4244    6.7992 N.3     1  UNL1       -0.3174
     22 H          60.3599   86.0675    6.1188 H       1  UNL1        0.1192
     23 H          60.5163   84.4666    6.5515 H       1  UNL1        0.1192
     24 C          63.4911   90.9860   13.0132 C.3     1  UNL1        0.1798
     25 C          64.7329   91.7371   12.6341 C.2     1  UNL1        0.2461
     26 O          64.9766   92.1089   11.2015 O.2     1  UNL1       -0.2730
     27 N          65.7310   92.1163   13.6877 N.am    1  UNL1       -0.2746
     28 C          66.9729   92.8674   13.3086 C.3     1  UNL1        0.1150
     29 C          65.4873   91.7445   15.1203 C.3     1  UNL1        0.1150
@<TRIPOS>BOND
     1     1     2    1
     2     2     3   ar
     3     3     4   ar
     4     4     5   ar
     5     5     6   ar
     6     6    12    1
     7    12    13   ar
     8    13    14   ar
     9    14    15   ar
    10    15    16    1
    11    15    17   ar
    12    17    18   ar
    13    18    19    1
    14     6     7   ar
    15     7    20    1
    16    20    21    1
    17     5     8    1
    18     8     9    2
    19     8    10   am
    20    10    24    1
    21    24    25    1
    22    25    26    2
    23    25    27   am
    24    27    28    1
    25    27    29    1
    26    10    11    1
    27     7     2   ar
    28    11     4    1
    29    18    12   ar
    30    21    22    1
    31    21    23    1
@<TRIPOS>MOLECULE
*****
 29 31 0 0 0
SMALL
GASTEIGER

@<TRIPOS>ATOM
      1 C          64.2645   91.8780   13.1825 C.3     1  UNL1        0.0518
      2 C          63.9602   90.4130   13.0750 C.ar    1  UNL1        0.0563
      3 N          64.5407   89.4516   14.0693 N.ar    1  UNL1       -0.2524
      4 C          64.2364   87.9867   13.9618 C.ar    1  UNL1        0.0830
      5 C          63.3517   87.4833   12.8601 C.ar    1  UNL1        0.0686
      6 C          62.7713   88.4447   11.8658 C.ar    1  UNL1        0.0048
      7 C          63.0755   89.9097   11.9733 C.ar    1  UNL1        0.0072
      8 C          63.2300   85.9954   13.0065 C.2     1  UNL1        0.2509
      9 O          62.4379   85.0838   12.1169 O.2     1  UNL1       -0.2698
     10 N          64.0395   85.5793   14.1988 N.am    1  UNL1       -0.2620
     11 C          64.6615   86.8100   14.7893 C.3     1  UNL1        0.1401
     12 C          61.8866   87.9414   10.7639 C.ar    1  UNL1        0.0106
     13 C          62.4849   87.2246    9.5900 C.ar    1  UNL1        0.0017
     14 C          61.6003   86.7212    8.4881 C.ar    1  UNL1        0.0114
     15 C          60.1174   86.9347    8.5603 C.ar    1  UNL1        0.0585
     16 CL         59.2327   86.4313    7.4585 Cl      1  UNL1       -0.0822
     17 C          59.5190   87.6514    9.7343 C.ar    1  UNL1        0.0228
     18 C          60.4036   88.1548   10.8361 C.ar    1  UNL1        0.0585
     19 CL         59.8053   88.8716   12.0101 Cl      1  UNL1       -0.0822
     20 C          62.4951   90.8712   10.9789 C.3     1  UNL1        0.0934
     21 N          63.3858   91.5403    9.9745 N.3     1  UNL1       -0.3174
     22 H          64.0336   92.1636   10.4565 H       1  UNL1        0.1192
     23 H          62.8171   92.0797    9.3218 H       1  UNL1        0.1192
     24 C          64.1990   84.1785   14.7108 C.3     1  UNL1        0.1798
     25 C          62.9905   83.3163   14.9257 C.2     1  UNL1        0.2461
     26 O          62.0249   83.6393   16.0271 O.2     1  UNL1       -0.2730
     27 N          62.7476   82.1310   14.0390 N.am    1  UNL1       -0.2746
     28 C          61.5391   81.2689   14.2538 C.3     1  UNL1        0.1150
     29 C          63.7131   81.8079   12.9375 C.3     1  UNL1        0.1150
@<TRIPOS>BOND
     1     1     2    1
     2     2     3   ar
     3     3     4   ar
     4     4     5   ar
     5     5     6   ar
     6     6    12    1
     7    12    13   ar
     8    13    14   ar
     9    14    15   ar
    10    15    16    1
    11    15    17   ar
    12    17    18   ar
    13    18    19    1
    14     6     7   ar
    15     7    20    1
    16    20    21    1
    17     5     8    1
    18     8     9    2
    19     8    10   am
    20    10    24    1
    21    24    25    1
    22    25    26    2
    23    25    27   am
    24    27    28    1
    25    27    29    1
    26    10    11    1
    27     7     2   ar
    28    11     4    1
    29    18    12   ar
    30    21    22    1
    31    21    23    1
@<TRIPOS>MOLECULE
*****
 29 31 0 0 0
SMALL
GASTEIGER

@<TRIPOS>ATOM
      1 C          63.9429   84.0678   15.0414 C.3     1  UNL1        0.0518
      2 C          63.7376   85.3164   14.2358 C.ar    1  UNL1        0.0563
      3 N          64.2482   86.6310   14.7469 N.ar    1  UNL1       -0.2524
      4 C          64.0429   87.8796   13.9414 C.ar    1  UNL1        0.0830
      5 C          63.3271   87.8137   12.6249 C.ar    1  UNL1        0.0686
      6 C          62.8166   86.4991   12.1138 C.ar    1  UNL1        0.0048
      7 C          63.0219   85.2505   12.9193 C.ar    1  UNL1        0.0072
      8 C          63.2735   89.2007   12.0564 C.2     1  UNL1        0.2509
      9 O          62.6473   89.5953   10.7517 O.2     1  UNL1       -0.2698
     10 N          63.9562   90.1239   13.0216 N.am    1  UNL1       -0.2620
     11 C          64.4317   89.3075   14.1866 C.3     1  UNL1        0.1401
     12 C          62.1008   86.4331   10.7972 C.ar    1  UNL1        0.0106
     13 C          62.7348   85.7307    9.6333 C.ar    1  UNL1        0.0017
     14 C          62.0191   85.6647    8.3167 C.ar    1  UNL1        0.0114
     15 C          60.6693   86.3009    8.1642 C.ar    1  UNL1        0.0585
     16 CL         59.9536   86.2348    6.8476 Cl      1  UNL1       -0.0822
     17 C          60.0353   87.0033    9.3281 C.ar    1  UNL1        0.0228
     18 C          60.7510   87.0693   10.6447 C.ar    1  UNL1        0.0585
     19 CL         60.1170   87.7717   11.8086 Cl      1  UNL1       -0.0822
     20 C          62.5113   83.9358   12.4082 C.3     1  UNL1        0.0934
     21 N          63.4437   82.9879   11.7139 N.3     1  UNL1       -0.3174
     22 H          63.7579   83.4018   10.8362 H       1  UNL1        0.1192
     23 H          62.9573   82.1121   11.5219 H       1  UNL1        0.1192
     24 C          64.1325   91.6038   12.8516 C.3     1  UNL1        0.1798
     25 C          64.8920   92.1383   11.6737 C.2     1  UNL1        0.2461
     26 O          64.1941   92.3446   10.3621 O.2     1  UNL1       -0.2730
     27 N          66.3496   92.4665   11.8075 N.am    1  UNL1       -0.2746
     28 C          67.1091   93.0009   10.6296 C.3     1  UNL1        0.1150
     29 C          67.0476   92.2602   13.1190 C.3     1  UNL1        0.1150
@<TRIPOS>BOND
     1     1     2    1
     2     2     3   ar
     3     3     4   ar
     4     4     5   ar
     5     5     6   ar
     6     6    12    1
     7    12    13   ar
     8    13    14   ar
     9    14    15   ar
    10    15    16    1
    11    15    17   ar
    12    17    18   ar
    13    18    19    1
    14     6     7   ar
    15     7    20    1
    16    20    21    1
    17     5     8    1
    18     8     9    2
    19     8    10   am
    20    10    24    1
    21    24    25    1
    22    25    26    2
    23    25    27   am
    24    27    28    1
    25    27    29    1
    26    10    11    1
    27     7     2   ar
    28    11     4    1
    29    18    12   ar
    30    21    22    1
    31    21    23    1
@<TRIPOS>MOLECULE
*****
 29 31 0 0 0
SMALL
GASTEIGER

@<TRIPOS>ATOM
      1 C          63.8883   83.0911   14.7387 C.3     1  UNL1        0.0518
      2 C          63.7110   84.4448   14.1171 C.ar    1  UNL1        0.0563
      3 N          64.2943   85.6569   14.7807 N.ar    1  UNL1       -0.2524
      4 C          64.1170   87.0105   14.1592 C.ar    1  UNL1        0.0830
      5 C          63.3565   87.1520   12.8741 C.ar    1  UNL1        0.0686
      6 C          62.7732   85.9398   12.2105 C.ar    1  UNL1        0.0048
      7 C          62.9505   84.5862   12.8321 C.ar    1  UNL1        0.0072
      8 C          63.3443   88.6045   12.5000 C.2     1  UNL1        0.2509
      9 O          62.6934   89.1968   11.2853 O.2     1  UNL1       -0.2698
     10 N          64.0974   89.3608   13.5540 N.am    1  UNL1       -0.2620
     11 C          64.5750   88.3757   14.5794 C.3     1  UNL1        0.1401
     12 C          62.0126   86.0812   10.9253 C.ar    1  UNL1        0.0106
     13 C          60.7189   86.8400   10.8990 C.ar    1  UNL1        0.0017
     14 C          59.9583   86.9814    9.6140 C.ar    1  UNL1        0.0114
     15 C          60.4914   86.3639    8.3552 C.ar    1  UNL1        0.0585
     16 CL         59.7307   86.5053    7.0701 Cl      1  UNL1       -0.0822
     17 C          61.7850   85.6051    8.3814 C.ar    1  UNL1        0.0228
     18 C          62.5456   85.4637    9.6665 C.ar    1  UNL1        0.0585
     19 CL         63.8392   84.7049    9.6928 Cl      1  UNL1       -0.0822
     20 C          62.3671   83.3739   12.1684 C.3     1  UNL1        0.0934
     21 N          63.2677   82.2716   11.6951 N.3     1  UNL1       -0.3174
     22 H          63.8558   82.6154   10.9359 H       1  UNL1        0.1192
     23 H          62.7027   81.4910   11.3607 H       1  UNL1        0.1192
     24 C          64.3319   90.8422   13.5783 C.3     1  UNL1        0.1798
     25 C          64.8063   91.5059   14.8370 C.2     1  UNL1        0.2461
     26 O          63.8742   91.6571   16.0024 O.2     1  UNL1       -0.2730
     27 N          66.2130   92.0184   14.9302 N.am    1  UNL1       -0.2746
     28 C          66.6875   92.6821   16.1889 C.3     1  UNL1        0.1150
     29 C          67.1452   91.8672   13.7648 C.3     1  UNL1        0.1150
@<TRIPOS>BOND
     1     1     2    1
     2     2     3   ar
     3     3     4   ar
     4     4     5   ar
     5     5     6   ar
     6     6    12    1
     7    12    13   ar
     8    13    14   ar
     9    14    15   ar
    10    15    16    1
    11    15    17   ar
    12    17    18   ar
    13    18    19    1
    14     6     7   ar
    15     7    20    1
    16    20    21    1
    17     5     8    1
    18     8     9    2
    19     8    10   am
    20    10    24    1
    21    24    25    1
    22    25    26    2
    23    25    27   am
    24    27    28    1
    25    27    29    1
    26    10    11    1
    27     7     2   ar
    28    11     4    1
    29    18    12   ar
    30    21    22    1
    31    21    23    1
@<TRIPOS>MOLECULE
*****
 29 31 0 0 0
SMALL
GASTEIGER

@<TRIPOS>ATOM
      1 C          60.8106   89.2374    9.2803 C.3     1  UNL1        0.0518
      2 C          61.6276   88.6836   10.4100 C.ar    1  UNL1        0.0563
      3 N          61.6935   87.2016   10.6317 N.ar    1  UNL1       -0.2524
      4 C          62.5104   86.6478   11.7613 C.ar    1  UNL1        0.0830
      5 C          63.2615   87.5761   12.6691 C.ar    1  UNL1        0.0686
      6 C          63.1957   89.0582   12.4474 C.ar    1  UNL1        0.0048
      7 C          62.3787   89.6119   11.3177 C.ar    1  UNL1        0.0072
      8 C          63.9784   86.7452   13.6916 C.2     1  UNL1        0.2509
      9 O          64.8502   87.2648   14.7961 O.2     1  UNL1       -0.2698
     10 N          63.6703   85.3033   13.4158 N.am    1  UNL1       -0.2620
     11 C          62.7631   85.2431   12.2227 C.3     1  UNL1        0.1401
     12 C          63.9468   89.9865   13.3552 C.ar    1  UNL1        0.0106
     13 C          65.1642   90.7045   12.8528 C.ar    1  UNL1        0.0017
     14 C          65.9153   91.6329   13.7605 C.ar    1  UNL1        0.0114
     15 C          65.4490   91.8432   15.1706 C.ar    1  UNL1        0.0585
     16 CL         66.2001   92.7716   16.0783 Cl      1  UNL1       -0.0822
     17 C          64.2315   91.1252   15.6729 C.ar    1  UNL1        0.0228
     18 C          63.4804   90.1968   14.7652 C.ar    1  UNL1        0.0585
     19 CL         62.2630   89.4788   15.2676 Cl      1  UNL1       -0.0822
     20 C          62.3128   91.0940   11.0960 C.3     1  UNL1        0.0934
     21 N          63.1364   91.7279   10.0143 N.3     1  UNL1       -0.3174
     22 H          64.1263   91.6330   10.2410 H       1  UNL1        0.1192
     23 H          62.8977   92.7168    9.9406 H       1  UNL1        0.1192
     24 C          64.1800   84.1279   14.1960 C.3     1  UNL1        0.1798
     25 C          63.4009   82.8462   14.2160 C.2     1  UNL1        0.2461
     26 O          62.4628   82.5564   15.3499 O.2     1  UNL1       -0.2730
     27 N          63.5600   81.8544   13.1020 N.am    1  UNL1       -0.2746
     28 C          62.7810   80.5728   13.1220 C.3     1  UNL1        0.1150
     29 C          64.4981   82.1442   11.9680 C.3     1  UNL1        0.1150
@<TRIPOS>BOND
     1     1     2    1
     2     2     3   ar
     3     3     4   ar
     4     4     5   ar
     5     5     6   ar
     6     6    12    1
     7    12    13   ar
     8    13    14   ar
     9    14    15   ar
    10    15    16    1
    11    15    17   ar
    12    17    18   ar
    13    18    19    1
    14     6     7   ar
    15     7    20    1
    16    20    21    1
    17     5     8    1
    18     8     9    2
    19     8    10   am
    20    10    24    1
    21    24    25    1
    22    25    26    2
    23    25    27   am
    24    27    28    1
    25    27    29    1
    26    10    11    1
    27     7     2   ar
    28    11     4    1
    29    18    12   ar
    30    21    22    1
    31    21    23    1
@<TRIPOS>MOLECULE
*****
 29 31 0 0 0
SMALL
GASTEIGER

@<TRIPOS>ATOM
      1 C          63.4364   80.4688   11.2045 C.3     1  UNL1        0.0518
      2 C          63.2240   81.9453   11.3618 C.ar    1  UNL1        0.0563
      3 N          63.0428   82.8102   10.1498 N.ar    1  UNL1       -0.2524
      4 C          62.8303   84.2868   10.3070 C.ar    1  UNL1        0.0830
      5 C          62.7991   84.8984   11.6763 C.ar    1  UNL1        0.0686
      6 C          62.9803   84.0335   12.8884 C.ar    1  UNL1        0.0048
      7 C          63.1927   82.5569   12.7311 C.ar    1  UNL1        0.0072
      8 C          62.5733   86.3730   11.5203 C.2     1  UNL1        0.2509
      9 O          62.4733   87.3724   12.6344 O.2     1  UNL1       -0.2698
     10 N          62.4650   86.6728   10.0546 N.am    1  UNL1       -0.2620
     11 C          62.6238   85.3835    9.3047 C.3     1  UNL1        0.1401
     12 C          62.9491   84.6450   14.2577 C.ar    1  UNL1        0.0106
     13 C          61.6500   84.7579   14.9992 C.ar    1  UNL1        0.0017
     14 C          61.6187   85.3694   16.3685 C.ar    1  UNL1        0.0114
     15 C          62.8865   85.8680   16.9963 C.ar    1  UNL1        0.0585
     16 CL         62.8552   86.4795   18.3657 Cl      1  UNL1       -0.0822
     17 C          64.1855   85.7552   16.2549 C.ar    1  UNL1        0.0228
     18 C          64.2168   85.1437   14.8855 C.ar    1  UNL1        0.0585
     19 CL         65.5158   85.0308   14.1440 Cl      1  UNL1       -0.0822
     20 C          63.3740   81.6919   13.9432 C.3     1  UNL1        0.0934
     21 N          62.1751   81.1582   14.6697 N.3     1  UNL1       -0.3174
     22 H          61.6586   81.9320   15.0879 H       1  UNL1        0.1192
     23 H          62.4792   80.5170   15.4024 H       1  UNL1        0.1192
     24 C          62.2377   88.0247    9.4456 C.3     1  UNL1        0.1798
     25 C          60.9746   88.7777    9.7412 C.2     1  UNL1        0.2461
     26 O          59.6789   88.3404    9.1249 O.2     1  UNL1       -0.2730
     27 N          61.0072   89.9681   10.6534 N.am    1  UNL1       -0.2746
     28 C          59.7441   90.7212   10.9490 C.3     1  UNL1        0.1150
     29 C          62.3028   90.4055   11.2698 C.3     1  UNL1        0.1150
@<TRIPOS>BOND
     1     1     2    1
     2     2     3   ar
     3     3     4   ar
     4     4     5   ar
     5     5     6   ar
     6     6    12    1
     7    12    13   ar
     8    13    14   ar
     9    14    15   ar
    10    15    16    1
    11    15    17   ar
    12    17    18   ar
    13    18    19    1
    14     6     7   ar
    15     7    20    1
    16    20    21    1
    17     5     8    1
    18     8     9    2
    19     8    10   am
    20    10    24    1
    21    24    25    1
    22    25    26    2
    23    25    27   am
    24    27    28    1
    25    27    29    1
    26    10    11    1
    27     7     2   ar
    28    11     4    1
    29    18    12   ar
    30    21    22    1
    31    21    23    1
@<TRIPOS>MOLECULE
*****
 29 31 0 0 0
SMALL
GASTEIGER

@<TRIPOS>ATOM
      1 C          59.9366   88.8873    8.9852 C.3     1  UNL1        0.0518
      2 C          60.8696   88.3170   10.0120 C.ar    1  UNL1        0.0563
      3 N          61.1154   86.8382   10.0629 N.ar    1  UNL1       -0.2524
      4 C          62.0484   86.2679   11.0897 C.ar    1  UNL1        0.0830
      5 C          62.7356   87.1764   12.0656 C.ar    1  UNL1        0.0686
      6 C          62.4898   88.6552   12.0147 C.ar    1  UNL1        0.0048
      7 C          61.5568   89.2255   10.9879 C.ar    1  UNL1        0.0072
      8 C          63.5952   86.3320   12.9589 C.2     1  UNL1        0.2509
      9 O          64.4591   86.8305   14.0793 O.2     1  UNL1       -0.2698
     10 N          63.4392   84.9016   12.5351 N.am    1  UNL1       -0.2620
     11 C          62.4833   84.8619   11.3799 C.3     1  UNL1        0.1401
     12 C          63.1770   89.5638   12.9906 C.ar    1  UNL1        0.0106
     13 C          62.9632   89.3811   14.4640 C.ar    1  UNL1        0.0017
     14 C          63.6503   90.2897   15.4399 C.ar    1  UNL1        0.0114
     15 C          64.5512   91.3809   14.9423 C.ar    1  UNL1        0.0585
     16 CL         65.2383   92.2894   15.9182 Cl      1  UNL1       -0.0822
     17 C          64.7650   91.5636   13.4689 C.ar    1  UNL1        0.0228
     18 C          64.0779   90.6550   12.4930 C.ar    1  UNL1        0.0585
     19 CL         64.2917   90.8377   11.0196 Cl      1  UNL1       -0.0822
     20 C          61.3110   90.7044   10.9370 C.3     1  UNL1        0.0934
     21 N          60.0131   91.2666   11.4364 N.3     1  UNL1       -0.3174
     22 H          59.2513   90.9463   10.8385 H       1  UNL1        0.1192
     23 H          60.0544   92.2856   11.4179 H       1  UNL1        0.1192
     24 C          64.1198   83.7185   13.1573 C.3     1  UNL1        0.1798
     25 C          63.3083   82.6685   13.8565 C.2     1  UNL1        0.2461
     26 O          63.0364   82.7862   15.3269 O.2     1  UNL1       -0.2730
     27 N          62.7686   81.5006   13.0851 N.am    1  UNL1       -0.2746
     28 C          61.9571   80.4506   13.7843 C.3     1  UNL1        0.1150
     29 C          63.0405   81.3827   11.6147 C.3     1  UNL1        0.1150
@<TRIPOS>BOND
     1     1     2    1
     2     2     3   ar
     3     3     4   ar
     4     4     5   ar
     5     5     6   ar
     6     6    12    1
     7    12    13   ar
     8    13    14   ar
     9    14    15   ar
    10    15    16    1
    11    15    17   ar
    12    17    18   ar
    13    18    19    1
    14     6     7   ar
    15     7    20    1
    16    20    21    1
    17     5     8    1
    18     8     9    2
    19     8    10   am
    20    10    24    1
    21    24    25    1
    22    25    26    2
    23    25    27   am
    24    27    28    1
    25    27    29    1
    26    10    11    1
    27     7     2   ar
    28    11     4    1
    29    18    12   ar
    30    21    22    1
    31    21    23    1
@<TRIPOS>MOLECULE
*****
 29 31 0 0 0
SMALL
GASTEIGER

@<TRIPOS>ATOM
      1 C          64.9923   89.2067   14.9245 C.3     1  UNL1        0.0518
      2 C          64.2111   88.3755   13.9503 C.ar    1  UNL1        0.0563
      3 N          63.4663   89.0368   12.8287 N.ar    1  UNL1       -0.2524
      4 C          62.6851   88.2057   11.8545 C.ar    1  UNL1        0.0830
      5 C          62.6488   86.7134   12.0019 C.ar    1  UNL1        0.0686
      6 C          63.3937   86.0522   13.1234 C.ar    1  UNL1        0.0048
      7 C          64.1749   86.8833   14.0976 C.ar    1  UNL1        0.0072
      8 C          61.7997   86.1590   10.8966 C.2     1  UNL1        0.2509
      9 O          61.4929   84.7094   10.6629 O.2     1  UNL1       -0.2698
     10 N          61.3112   87.3086   10.0662 N.am    1  UNL1       -0.2620
     11 C          61.8584   88.5736   10.6582 C.3     1  UNL1        0.1401
     12 C          63.3574   84.5598   13.2708 C.ar    1  UNL1        0.0106
     13 C          64.1794   83.6962   12.3606 C.ar    1  UNL1        0.0017
     14 C          64.1432   82.2038   12.5080 C.ar    1  UNL1        0.0114
     15 C          63.2850   81.5753   13.5656 C.ar    1  UNL1        0.0585
     16 CL         63.2489   80.0830   13.7129 Cl      1  UNL1       -0.0822
     17 C          62.4631   82.4390   14.4757 C.ar    1  UNL1        0.0228
     18 C          62.4993   83.9313   14.3284 C.ar    1  UNL1        0.0585
     19 CL         61.6774   84.7950   15.2386 Cl      1  UNL1       -0.0822
     20 C          64.9198   86.2221   15.2193 C.3     1  UNL1        0.0934
     21 N          66.2319   85.5461   14.9524 N.3     1  UNL1       -0.3174
     22 H          66.0816   84.7384   14.3478 H       1  UNL1        0.1192
     23 H          66.6418   85.2389   15.8344 H       1  UNL1        0.1192
     24 C          60.4301   87.2106    8.8562 C.3     1  UNL1        0.1798
     25 C          60.6193   86.0879    7.8796 C.2     1  UNL1        0.2461
     26 O          59.4306   85.4800    7.1961 O.2     1  UNL1       -0.2730
     27 N          61.9974   85.5730    7.5866 N.am    1  UNL1       -0.2746
     28 C          62.1866   84.4503    6.6101 C.3     1  UNL1        0.1150
     29 C          63.1863   86.1808    8.2702 C.3     1  UNL1        0.1150
@<TRIPOS>BOND
     1     1     2    1
     2     2     3   ar
     3     3     4   ar
     4     4     5   ar
     5     5     6   ar
     6     6    12    1
     7    12    13   ar
     8    13    14   ar
     9    14    15   ar
    10    15    16    1
    11    15    17   ar
    12    17    18   ar
    13    18    19    1
    14     6     7   ar
    15     7    20    1
    16    20    21    1
    17     5     8    1
    18     8     9    2
    19     8    10   am
    20    10    24    1
    21    24    25    1
    22    25    26    2
    23    25    27   am
    24    27    28    1
    25    27    29    1
    26    10    11    1
    27     7     2   ar
    28    11     4    1
    29    18    12   ar
    30    21    22    1
    31    21    23    1
