@<TRIPOS>MOLECULE
*****
 30 33 0 0 0
SMALL
GASTEIGER

@<TRIPOS>ATOM
      1 C          62.7628   89.5026   13.9037 C.3     1  UNL1        0.0282
      2 C          63.1697   90.2089   12.6445 C.3     1  UNL1        0.1189
      3 C          64.1727   91.3228   12.6999 C.ar    1  UNL1        0.1138
      4 N          64.9251   91.9401   13.8414 N.ar    1  UNL1       -0.1315
      5 N          65.7969   93.0278   13.2876 N.ar    1  UNL1       -0.0576
      6 N          65.5834   93.0829   11.8039 N.ar    1  UNL1       -0.1813
      7 C          64.5796   92.0291   11.4407 C.ar    1  UNL1        0.0837
      8 C          63.9834   91.6214   10.1260 C.3     1  UNL1        0.0688
      9 C          62.9804   90.5075   10.0705 C.3     1  UNL1        0.1004
     10 N          62.5735   89.8013   11.3297 N.am    1  UNL1       -0.2719
     11 C          61.5705   88.6872   11.2742 C.2     1  UNL1        0.2501
     12 O          61.1636   87.9810   12.5335 O.2     1  UNL1       -0.2699
     13 C          66.2557   94.0260   10.8508 C.ar    1  UNL1        0.2543
     14 N          66.0786   95.5069   11.0111 N.ar    1  UNL1       -0.2060
     15 C          66.7509   96.4502   10.0579 C.ar    1  UNL1        0.1332
     16 C          67.6002   95.9125    8.9446 C.ar    1  UNL1        0.1784
     17 F          68.2724   96.8557    7.9915 F       1  UNL1       -0.2009
     18 C          67.7772   94.4316    8.7844 C.ar    1  UNL1        0.1332
     19 N          67.1050   93.4884    9.7374 N.ar    1  UNL1       -0.2060
     20 C          60.9743   88.2796    9.9596 C.ar    1  UNL1        0.0641
     21 C          59.9537   89.1553    9.2951 C.ar    1  UNL1        0.0054
     22 C          59.3575   88.7475    7.9804 C.ar    1  UNL1        0.0001
     23 C          59.7820   87.4642    7.3302 C.ar    1  UNL1        0.0047
     24 C          60.8027   86.5885    7.9947 C.ar    1  UNL1        0.0821
     25 C          61.3988   86.9962    9.3094 C.ar    1  UNL1        0.0659
     26 CL         62.4194   86.1205    9.9738 Cl      1  UNL1       -0.0822
     27 C          61.2271   85.3051    7.3445 C.3     1  UNL1        0.4194
     28 F          61.6515   84.0217    6.6942 F       1  UNL1       -0.1658
     29 F          62.6612   85.6281    7.6431 F       1  UNL1       -0.1658
     30 F          59.7930   84.9821    7.0458 F       1  UNL1       -0.1658
@<TRIPOS>BOND
     1     2     1    1
     2     2     3    1
     3     3     4   ar
     4     4     5   ar
     5     5     6   ar
     6     6    13    1
     7    13    14   ar
     8    14    15   ar
     9    15    16   ar
    10    16    17    1
    11    16    18   ar
    12    18    19   ar
    13     6     7   ar
    14     7     8    1
    15     8     9    1
    16     9    10    1
    17    10    11   am
    18    11    12    2
    19    11    20    1
    20    20    21   ar
    21    21    22   ar
    22    22    23   ar
    23    23    24   ar
    24    24    27    1
    25    27    28    1
    26    27    29    1
    27    27    30    1
    28    24    25   ar
    29    25    26    1
    30    10     2    1
    31    25    20   ar
    32     7     3   ar
    33    19    13   ar
@<TRIPOS>MOLECULE
*****
 30 33 0 0 0
SMALL
GASTEIGER

@<TRIPOS>ATOM
      1 C          63.4067   89.3900   16.9639 C.3     1  UNL1        0.0282
      2 C          63.4281   88.4653   15.7830 C.3     1  UNL1        0.1189
      3 C          63.2721   86.9872   15.9848 C.ar    1  UNL1        0.1138
      4 N          63.0825   86.1573   17.2199 N.ar    1  UNL1       -0.1315
      5 N          62.9867   84.7199   16.8022 N.ar    1  UNL1       -0.0576
      6 N          63.1172   84.6613   15.3090 N.ar    1  UNL1       -0.1813
      7 C          63.2936   86.0626   14.8038 C.ar    1  UNL1        0.0837
      8 C          63.4710   86.6161   13.4210 C.3     1  UNL1        0.0688
      9 C          63.6269   88.0943   13.2192 C.3     1  UNL1        0.1004
     10 N          63.6055   89.0188   14.4001 N.am    1  UNL1       -0.2719
     11 C          63.7614   90.4971   14.1983 C.2     1  UNL1        0.2501
     12 O          63.7400   91.4217   15.3792 O.2     1  UNL1       -0.2699
     13 C          63.0781   83.4194   14.4686 C.ar    1  UNL1        0.2543
     14 N          61.9255   82.4673   14.5906 N.ar    1  UNL1       -0.2060
     15 C          61.8863   81.2253   13.7502 C.ar    1  UNL1        0.1332
     16 C          62.9998   80.9357   12.7879 C.ar    1  UNL1        0.1784
     17 F          62.9607   79.6938   11.9475 F       1  UNL1       -0.2009
     18 C          64.1524   81.8879   12.6658 C.ar    1  UNL1        0.1332
     19 N          64.1916   83.1297   13.5062 N.ar    1  UNL1       -0.2060
     20 C          63.9388   91.0506   12.8155 C.ar    1  UNL1        0.0641
     21 C          62.9481   90.7148   11.7404 C.ar    1  UNL1        0.0054
     22 C          63.1256   91.2684   10.3576 C.ar    1  UNL1        0.0001
     23 C          64.2936   92.1577   10.0499 C.ar    1  UNL1        0.0047
     24 C          65.2843   92.4936   11.1251 C.ar    1  UNL1        0.0821
     25 C          65.1069   91.9400   12.5078 C.ar    1  UNL1        0.0659
     26 CL         66.0976   92.2758   13.5829 Cl      1  UNL1       -0.0822
     27 C          66.4524   93.3829   10.8173 C.3     1  UNL1        0.4194
     28 F          67.6204   94.2723   10.5096 F       1  UNL1       -0.1658
     29 F          65.6810   94.5687   11.3164 F       1  UNL1       -0.1658
     30 F          67.2237   92.1972   10.3182 F       1  UNL1       -0.1658
@<TRIPOS>BOND
     1     2     1    1
     2     2     3    1
     3     3     4   ar
     4     4     5   ar
     5     5     6   ar
     6     6    13    1
     7    13    14   ar
     8    14    15   ar
     9    15    16   ar
    10    16    17    1
    11    16    18   ar
    12    18    19   ar
    13     6     7   ar
    14     7     8    1
    15     8     9    1
    16     9    10    1
    17    10    11   am
    18    11    12    2
    19    11    20    1
    20    20    21   ar
    21    21    22   ar
    22    22    23   ar
    23    23    24   ar
    24    24    27    1
    25    27    28    1
    26    27    29    1
    27    27    30    1
    28    24    25   ar
    29    25    26    1
    30    10     2    1
    31    25    20   ar
    32     7     3   ar
    33    19    13   ar
@<TRIPOS>MOLECULE
*****
 30 33 0 0 0
SMALL
GASTEIGER

@<TRIPOS>ATOM
      1 C          65.5881   90.9270   14.7748 C.3     1  UNL1        0.0282
      2 C          64.8862   90.9346   13.4491 C.3     1  UNL1        0.1189
      3 C          63.9605   89.8122   13.0841 C.ar    1  UNL1        0.1138
      4 N          63.5462   88.5730   13.8209 N.ar    1  UNL1       -0.1315
      5 N          62.5883   87.8148   12.9505 N.ar    1  UNL1       -0.0576
      6 N          62.4106   88.5853   11.6759 N.ar    1  UNL1       -0.1813
      7 C          63.2587   89.8198   11.7584 C.ar    1  UNL1        0.0837
      8 C          63.4826   90.9498   10.7978 C.3     1  UNL1        0.0688
      9 C          64.4083   92.0722   11.1628 C.3     1  UNL1        0.1004
     10 N          65.1101   92.0646   12.4884 N.am    1  UNL1       -0.2719
     11 C          66.0359   93.1871   12.8534 C.2     1  UNL1        0.2501
     12 O          66.7377   93.1795   14.1791 O.2     1  UNL1       -0.2699
     13 C          61.5381   88.1907   10.5214 C.ar    1  UNL1        0.2543
     14 N          61.4293   86.7489   10.1220 N.ar    1  UNL1       -0.2060
     15 C          60.5567   86.3542    8.9675 C.ar    1  UNL1        0.1332
     16 C          59.7929   87.4012    8.2124 C.ar    1  UNL1        0.1784
     17 F          58.9204   87.0065    7.0579 F       1  UNL1       -0.2009
     18 C          59.9017   88.8430    8.6119 C.ar    1  UNL1        0.1332
     19 N          60.7742   89.2377    9.7663 N.ar    1  UNL1       -0.2060
     20 C          66.2598   94.3171   11.8928 C.ar    1  UNL1        0.0641
     21 C          65.9544   95.7259   12.3077 C.ar    1  UNL1        0.0054
     22 C          66.1783   96.8559   11.3469 C.ar    1  UNL1        0.0001
     23 C          66.7075   96.5772    9.9714 C.ar    1  UNL1        0.0047
     24 C          67.0129   95.1684    9.5565 C.ar    1  UNL1        0.0821
     25 C          66.7890   94.0383   10.5172 C.ar    1  UNL1        0.0659
     26 CL         67.0944   92.6296   10.1022 Cl      1  UNL1       -0.0822
     27 C          67.5422   94.8897    8.1809 C.3     1  UNL1        0.4194
     28 F          68.0714   94.6110    6.8053 F       1  UNL1       -0.1658
     29 F          66.3261   95.5327    7.5828 F       1  UNL1       -0.1658
     30 F          68.7582   94.2467    8.7791 F       1  UNL1       -0.1658
@<TRIPOS>BOND
     1     2     1    1
     2     2     3    1
     3     3     4   ar
     4     4     5   ar
     5     5     6   ar
     6     6    13    1
     7    13    14   ar
     8    14    15   ar
     9    15    16   ar
    10    16    17    1
    11    16    18   ar
    12    18    19   ar
    13     6     7   ar
    14     7     8    1
    15     8     9    1
    16     9    10    1
    17    10    11   am
    18    11    12    2
    19    11    20    1
    20    20    21   ar
    21    21    22   ar
    22    22    23   ar
    23    23    24   ar
    24    24    27    1
    25    27    28    1
    26    27    29    1
    27    27    30    1
    28    24    25   ar
    29    25    26    1
    30    10     2    1
    31    25    20   ar
    32     7     3   ar
    33    19    13   ar
@<TRIPOS>MOLECULE
*****
 30 33 0 0 0
SMALL
GASTEIGER

@<TRIPOS>ATOM
      1 C          61.6176   88.0844    9.9860 C.3     1  UNL1        0.0282
      2 C          62.4944   88.2912   11.1855 C.3     1  UNL1        0.1189
      3 C          63.1297   89.6280   11.4286 C.ar    1  UNL1        0.1138
      4 N          63.0752   90.9187   10.6662 N.ar    1  UNL1       -0.1315
      5 N          63.9182   91.9231   11.3946 N.ar    1  UNL1       -0.0576
      6 N          64.4937   91.2532   12.6070 N.ar    1  UNL1       -0.1813
      7 C          64.0064   89.8347   12.6280 C.ar    1  UNL1        0.0837
      8 C          64.2477   88.7046   13.5844 C.3     1  UNL1        0.0688
      9 C          63.6124   87.3678   13.3412 C.3     1  UNL1        0.1004
     10 N          62.7357   87.1611   12.1419 N.am    1  UNL1       -0.2719
     11 C          62.1003   85.8241   11.8988 C.2     1  UNL1        0.2501
     12 O          61.2236   85.6174   10.6993 O.2     1  UNL1       -0.2699
     13 C          65.3978   91.8900   13.6205 C.ar    1  UNL1        0.2543
     14 N          66.7255   92.4451   13.1973 N.ar    1  UNL1       -0.2060
     15 C          67.6297   93.0820   14.2107 C.ar    1  UNL1        0.1332
     16 C          67.2061   93.1636   15.6473 C.ar    1  UNL1        0.1784
     17 F          68.1102   93.8004   16.6608 F       1  UNL1       -0.2009
     18 C          65.8784   92.6085   16.0705 C.ar    1  UNL1        0.1332
     19 N          64.9743   91.9717   15.0571 N.ar    1  UNL1       -0.2060
     20 C          62.3416   84.6940   12.8551 C.ar    1  UNL1        0.0641
     21 C          62.4441   84.9658   14.3267 C.ar    1  UNL1        0.0054
     22 C          62.6854   83.8356   15.2830 C.ar    1  UNL1        0.0001
     23 C          62.8242   82.4338   14.7678 C.ar    1  UNL1        0.0047
     24 C          62.7217   82.1620   13.2961 C.ar    1  UNL1        0.0821
     25 C          62.4804   83.2921   12.3398 C.ar    1  UNL1        0.0659
     26 CL         62.3779   83.0204   10.8682 Cl      1  UNL1       -0.0822
     27 C          62.8605   80.7601   12.7808 C.3     1  UNL1        0.4194
     28 F          62.9993   79.3583   12.2656 F       1  UNL1       -0.1658
     29 F          64.2485   81.0723   12.3054 F       1  UNL1       -0.1658
     30 F          61.4725   80.4480   13.2563 F       1  UNL1       -0.1658
@<TRIPOS>BOND
     1     2     1    1
     2     2     3    1
     3     3     4   ar
     4     4     5   ar
     5     5     6   ar
     6     6    13    1
     7    13    14   ar
     8    14    15   ar
     9    15    16   ar
    10    16    17    1
    11    16    18   ar
    12    18    19   ar
    13     6     7   ar
    14     7     8    1
    15     8     9    1
    16     9    10    1
    17    10    11   am
    18    11    12    2
    19    11    20    1
    20    20    21   ar
    21    21    22   ar
    22    22    23   ar
    23    23    24   ar
    24    24    27    1
    25    27    28    1
    26    27    29    1
    27    27    30    1
    28    24    25   ar
    29    25    26    1
    30    10     2    1
    31    25    20   ar
    32     7     3   ar
    33    19    13   ar
@<TRIPOS>MOLECULE
*****
 30 33 0 0 0
SMALL
GASTEIGER

@<TRIPOS>ATOM
      1 C          44.4352   82.5016   19.2281 C.3     1  UNL1        0.0282
      2 C          44.4401   81.5688   18.0533 C.3     1  UNL1        0.1189
      3 C          44.2062   82.1023   16.6710 C.ar    1  UNL1        0.1138
      4 N          43.9451   83.4886   16.1611 N.ar    1  UNL1       -0.1315
      5 N          43.7886   83.4125   14.6712 N.ar    1  UNL1       -0.0576
      6 N          43.9530   81.9793   14.2604 N.ar    1  UNL1       -0.1813
      7 C          44.2111   81.1695   15.4963 C.ar    1  UNL1        0.0837
      8 C          44.4499   79.7033   15.7039 C.3     1  UNL1        0.0688
      9 C          44.6838   79.1698   17.0862 C.3     1  UNL1        0.1004
     10 N          44.6789   80.1025   18.2608 N.am    1  UNL1       -0.2719
     11 C          44.9129   79.5690   19.6432 C.2     1  UNL1        0.2501
     12 O          44.9080   80.5018   20.8179 O.2     1  UNL1       -0.2699
     13 C          43.8733   81.4490   12.8595 C.ar    1  UNL1        0.2543
     14 N          43.7305   82.3968   11.7058 N.ar    1  UNL1       -0.2060
     15 C          43.6508   81.8666   10.3048 C.ar    1  UNL1        0.1332
     16 C          43.7139   80.3885   10.0577 C.ar    1  UNL1        0.1784
     17 F          43.6342   79.8582    8.6569 F       1  UNL1       -0.2009
     18 C          43.8567   79.4406   11.2116 C.ar    1  UNL1        0.1332
     19 N          43.9364   79.9708   12.6124 N.ar    1  UNL1       -0.2060
     20 C          45.1517   78.1028   19.8508 C.ar    1  UNL1        0.0641
     21 C          44.0423   77.2256   20.3508 C.ar    1  UNL1        0.0054
     22 C          44.2812   75.7593   20.5583 C.ar    1  UNL1        0.0001
     23 C          45.6293   75.1703   20.2659 C.ar    1  UNL1        0.0047
     24 C          46.7387   76.0475   19.7659 C.ar    1  UNL1        0.0821
     25 C          46.4999   77.5138   19.5583 C.ar    1  UNL1        0.0659
     26 CL         47.6092   78.3909   19.0583 Cl      1  UNL1       -0.0822
     27 C          48.0868   75.4584   19.4735 C.3     1  UNL1        0.4194
     28 F          49.4350   74.8693   19.1811 F       1  UNL1       -0.1658
     29 F          47.6944   75.2730   18.0377 F       1  UNL1       -0.1658
     30 F          48.4793   75.6438   20.9093 F       1  UNL1       -0.1658
@<TRIPOS>BOND
     1     2     1    1
     2     2     3    1
     3     3     4   ar
     4     4     5   ar
     5     5     6   ar
     6     6    13    1
     7    13    14   ar
     8    14    15   ar
     9    15    16   ar
    10    16    17    1
    11    16    18   ar
    12    18    19   ar
    13     6     7   ar
    14     7     8    1
    15     8     9    1
    16     9    10    1
    17    10    11   am
    18    11    12    2
    19    11    20    1
    20    20    21   ar
    21    21    22   ar
    22    22    23   ar
    23    23    24   ar
    24    24    27    1
    25    27    28    1
    26    27    29    1
    27    27    30    1
    28    24    25   ar
    29    25    26    1
    30    10     2    1
    31    25    20   ar
    32     7     3   ar
    33    19    13   ar
