@<TRIPOS>MOLECULE
*****
 35 39 0 0 0
SMALL
GASTEIGER

@<TRIPOS>ATOM
      1 C          64.1319   90.7640   12.0915 C.ar    1  UNL1        0.0113
      2 C          63.4313   91.5744   11.0415 C.ar    1  UNL1        0.0001
      3 C          62.3917   90.9345   10.1700 C.ar    1  UNL1        0.0170
      4 C          62.0527   89.4842   10.3483 C.ar    1  UNL1        0.0625
      5 C          62.7533   88.6739   11.3983 C.ar    1  UNL1        0.0158
      6 C          63.7929   89.3138   12.2699 C.ar    1  UNL1        0.0001
      7 C          62.4142   87.2236   11.5767 C.ar    1  UNL1        0.0061
      8 C          61.3746   86.5837   10.7051 C.ar    1  UNL1        0.0608
      9 C          60.6740   87.3941    9.6551 C.ar    1  UNL1        0.2610
     10 O          59.6344   86.7542    8.7835 O.2     1  UNL1       -0.2670
     11 N          61.0130   88.8443    9.4767 N.ar    1  UNL1       -0.2935
     12 C          60.3124   89.6547    8.4267 C.3     1  UNL1        0.1335
     13 C          63.1148   86.4132   12.6267 C.ar    1  UNL1        0.0003
     14 C          63.8332   87.1010   13.7496 C.ar    1  UNL1        0.0023
     15 C          64.5338   86.2905   14.7996 C.ar    1  UNL1        0.0296
     16 C          64.5160   84.7924   14.7266 C.ar    1  UNL1        0.1401
     17 F          65.2166   83.9820   15.7766 F       1  UNL1       -0.2042
     18 C          63.7976   84.1047   13.6037 C.ar    1  UNL1        0.0296
     19 C          63.0970   84.9151   12.5538 C.ar    1  UNL1        0.0023
     20 C          65.1716   91.4039   12.9632 C.3     1  UNL1        0.1647
     21 C          66.2112   92.0438   13.8347 C.ar    1  UNL1        0.0112
     22 C          67.1377   91.1891   14.6479 C.ar    1  UNL1       -0.0005
     23 C          68.1773   91.8290   15.5194 C.ar    1  UNL1        0.0112
     24 C          68.2905   93.3235   15.5779 C.ar    1  UNL1        0.0577
     25 CL         69.3302   93.9634   16.4495 Cl      1  UNL1       -0.0822
     26 C          67.3641   94.1782   14.7648 C.ar    1  UNL1        0.0112
     27 C          66.3244   93.5384   13.8932 C.ar    1  UNL1       -0.0005
     28 C          65.5932   92.2773   11.8189 C.ar    1  UNL1        0.0901
     29 C          64.7476   93.3171   11.1452 C.ar    1  UNL1        0.1163
     30 N          65.5664   93.9468   10.0573 N.ar    1  UNL1       -0.2226
     31 C          66.9180   93.2961   10.0588 C.ar    1  UNL1        0.1784
     32 N          66.9346   92.2644   11.1475 N.ar    1  UNL1       -0.3080
     33 C          68.0896   91.3757   11.5025 C.3     1  UNL1        0.1318
     34 C          63.8437   91.0743   15.1718 C.3     1  UNL1        0.1753
     35 O          64.7499   90.5305   14.1074 O.3     1  UNL1       -0.3422
@<TRIPOS>BOND
     1    34    35    1
     2    35    20    1
     3    20    21    1
     4    21    22   ar
     5    22    23   ar
     6    23    24   ar
     7    24    25    1
     8    24    26   ar
     9    26    27   ar
    10    20     1    1
    11     1     2   ar
    12     2     3   ar
    13     3     4   ar
    14     4     5   ar
    15     5     6   ar
    16     5     7   ar
    17     7    13    1
    18    13    14   ar
    19    14    15   ar
    20    15    16   ar
    21    16    17    1
    22    16    18   ar
    23    18    19   ar
    24     7     8   ar
    25     8     9   ar
    26     9    10    2
    27     9    11   ar
    28    11    12    1
    29    20    28    1
    30    28    29   ar
    31    29    30   ar
    32    30    31   ar
    33    31    32   ar
    34    32    33    1
    35    27    21   ar
    36     6     1   ar
    37    19    13   ar
    38    32    28   ar
    39    11     4   ar
@<TRIPOS>MOLECULE
*****
 35 39 0 0 0
SMALL
GASTEIGER

@<TRIPOS>ATOM
      1 C          58.4043   94.4264   -1.6832 C.ar    1  UNL1        0.0113
      2 C          58.2218   93.8591   -0.3068 C.ar    1  UNL1        0.0001
      3 C          59.4158   93.4199    0.4877 C.ar    1  UNL1        0.0170
      4 C          60.7924   93.5479   -0.0943 C.ar    1  UNL1        0.0625
      5 C          60.9749   94.1152   -1.4708 C.ar    1  UNL1        0.0158
      6 C          59.7808   94.5545   -2.2653 C.ar    1  UNL1        0.0001
      7 C          62.3514   94.2433   -2.0528 C.ar    1  UNL1        0.0061
      8 C          63.5455   93.8040   -1.2583 C.ar    1  UNL1        0.0608
      9 C          63.3630   93.2367    0.1183 C.ar    1  UNL1        0.2610
     10 O          64.5571   92.7974    0.9128 O.2     1  UNL1       -0.2670
     11 N          61.9865   93.1086    0.7003 N.ar    1  UNL1       -0.2935
     12 C          61.8040   92.5413    2.0768 C.3     1  UNL1        0.1335
     13 C          62.5339   94.8106   -3.4293 C.ar    1  UNL1        0.0003
     14 C          62.7110   96.2886   -3.6139 C.ar    1  UNL1        0.0023
     15 C          62.8935   96.8559   -4.9905 C.ar    1  UNL1        0.0296
     16 C          62.8989   95.9452   -6.1824 C.ar    1  UNL1        0.1401
     17 F          63.0814   96.5125   -7.5590 F       1  UNL1       -0.2042
     18 C          62.7218   94.4672   -5.9977 C.ar    1  UNL1        0.0296
     19 C          62.5393   93.8999   -4.6212 C.ar    1  UNL1        0.0023
     20 C          57.2102   94.8657   -2.4778 C.3     1  UNL1        0.1647
     21 C          56.0162   95.3050   -3.2723 C.ar    1  UNL1        0.0112
     22 C          54.6626   95.3530   -2.6276 C.ar    1  UNL1       -0.0005
     23 C          53.4686   95.7922   -3.4221 C.ar    1  UNL1        0.0112
     24 C          53.6280   96.1834   -4.8614 C.ar    1  UNL1        0.0577
     25 CL         52.4340   96.6227   -5.6559 Cl      1  UNL1       -0.0822
     26 C          54.9815   96.1354   -5.5062 C.ar    1  UNL1        0.0112
     27 C          56.1756   95.6962   -4.7116 C.ar    1  UNL1       -0.0005
     28 C          56.8723   93.4323   -2.7624 C.ar    1  UNL1        0.0901
     29 C          56.0134   92.5434   -1.9125 C.ar    1  UNL1        0.1163
     30 N          55.9442   91.1977   -2.5717 N.ar    1  UNL1       -0.2226
     31 C          56.7603   91.2550   -3.8290 C.ar    1  UNL1        0.1784
     32 N          57.3338   92.6360   -3.9469 N.ar    1  UNL1       -0.3080
     33 C          58.2143   93.1334   -5.0546 C.3     1  UNL1        0.1318
     34 C          57.3554   96.8555   -0.8136 C.3     1  UNL1        0.1753
     35 O          57.5481   96.2992   -2.1933 O.3     1  UNL1       -0.3422
@<TRIPOS>BOND
     1    34    35    1
     2    35    20    1
     3    20    21    1
     4    21    22   ar
     5    22    23   ar
     6    23    24   ar
     7    24    25    1
     8    24    26   ar
     9    26    27   ar
    10    20     1    1
    11     1     2   ar
    12     2     3   ar
    13     3     4   ar
    14     4     5   ar
    15     5     6   ar
    16     5     7   ar
    17     7    13    1
    18    13    14   ar
    19    14    15   ar
    20    15    16   ar
    21    16    17    1
    22    16    18   ar
    23    18    19   ar
    24     7     8   ar
    25     8     9   ar
    26     9    10    2
    27     9    11   ar
    28    11    12    1
    29    20    28    1
    30    28    29   ar
    31    29    30   ar
    32    30    31   ar
    33    31    32   ar
    34    32    33    1
    35    27    21   ar
    36     6     1   ar
    37    19    13   ar
    38    32    28   ar
    39    11     4   ar
@<TRIPOS>MOLECULE
*****
 35 39 0 0 0
SMALL
GASTEIGER

@<TRIPOS>ATOM
      1 C          63.5024   90.1029   12.0536 C.ar    1  UNL1        0.0113
      2 C          62.7397   90.9905   11.1153 C.ar    1  UNL1        0.0001
      3 C          61.7437   90.3963   10.1640 C.ar    1  UNL1        0.0170
      4 C          61.5104   88.9146   10.1510 C.ar    1  UNL1        0.0625
      5 C          62.2732   88.0271   11.0893 C.ar    1  UNL1        0.0158
      6 C          63.2692   88.6212   12.0406 C.ar    1  UNL1        0.0001
      7 C          62.0399   86.5454   11.0763 C.ar    1  UNL1        0.0061
      8 C          61.0439   85.9512   10.1250 C.ar    1  UNL1        0.0608
      9 C          60.2811   86.8388    9.1867 C.ar    1  UNL1        0.2610
     10 O          59.2851   86.2447    8.2354 O.2     1  UNL1       -0.2670
     11 N          60.5144   88.3205    9.1997 N.ar    1  UNL1       -0.2935
     12 C          59.7516   89.2081    8.2614 C.3     1  UNL1        0.1335
     13 C          62.8027   85.6578   12.0146 C.ar    1  UNL1        0.0003
     14 C          62.8407   85.9728   13.4806 C.ar    1  UNL1        0.0023
     15 C          63.6035   85.0851   14.4189 C.ar    1  UNL1        0.0296
     16 C          64.3282   83.8826   13.8911 C.ar    1  UNL1        0.1401
     17 F          65.0910   82.9949   14.8294 F       1  UNL1       -0.2042
     18 C          64.2902   83.5676   12.4250 C.ar    1  UNL1        0.0296
     19 C          63.5274   84.4552   11.4868 C.ar    1  UNL1        0.0023
     20 C          64.4985   90.6970   13.0049 C.3     1  UNL1        0.1647
     21 C          65.4944   91.2911   13.9562 C.ar    1  UNL1        0.0112
     22 C          66.9532   91.2991   13.6066 C.ar    1  UNL1       -0.0005
     23 C          67.9491   91.8932   14.5580 C.ar    1  UNL1        0.0112
     24 C          67.4865   92.4792   15.8589 C.ar    1  UNL1        0.0577
     25 CL         68.4825   93.0733   16.8102 Cl      1  UNL1       -0.0822
     26 C          66.0279   92.4712   16.2085 C.ar    1  UNL1        0.0112
     27 C          65.0318   91.8771   15.2572 C.ar    1  UNL1       -0.0005
     28 C          63.7937   90.0388   14.1538 C.ar    1  UNL1        0.0901
     29 C          62.4741   90.4544   14.7335 C.ar    1  UNL1        0.1163
     30 N          62.1495   89.5219   15.8628 N.ar    1  UNL1       -0.2226
     31 C          63.2686   88.5300   15.9810 C.ar    1  UNL1        0.1784
     32 N          64.2847   88.8495   14.9248 N.ar    1  UNL1       -0.3080
     33 C          65.5667   88.1096   14.6822 C.3     1  UNL1        0.1318
     34 C          65.2776   92.8514   11.7795 C.3     1  UNL1        0.1753
     35 O          65.2033   91.3552   11.8560 O.3     1  UNL1       -0.3422
@<TRIPOS>BOND
     1    34    35    1
     2    35    20    1
     3    20    21    1
     4    21    22   ar
     5    22    23   ar
     6    23    24   ar
     7    24    25    1
     8    24    26   ar
     9    26    27   ar
    10    20     1    1
    11     1     2   ar
    12     2     3   ar
    13     3     4   ar
    14     4     5   ar
    15     5     6   ar
    16     5     7   ar
    17     7    13    1
    18    13    14   ar
    19    14    15   ar
    20    15    16   ar
    21    16    17    1
    22    16    18   ar
    23    18    19   ar
    24     7     8   ar
    25     8     9   ar
    26     9    10    2
    27     9    11   ar
    28    11    12    1
    29    20    28    1
    30    28    29   ar
    31    29    30   ar
    32    30    31   ar
    33    31    32   ar
    34    32    33    1
    35    27    21   ar
    36     6     1   ar
    37    19    13   ar
    38    32    28   ar
    39    11     4   ar
@<TRIPOS>MOLECULE
*****
 35 39 0 0 0
SMALL
GASTEIGER

@<TRIPOS>ATOM
      1 C          63.6720   85.9806   13.8135 C.ar    1  UNL1        0.0113
      2 C          64.6657   86.5087   14.8052 C.ar    1  UNL1        0.0001
      3 C          65.0296   87.9639   14.7999 C.ar    1  UNL1        0.0170
      4 C          64.3999   88.8909   13.8029 C.ar    1  UNL1        0.0625
      5 C          63.4062   88.3627   12.8111 C.ar    1  UNL1        0.0158
      6 C          63.0422   86.9076   12.8164 C.ar    1  UNL1        0.0001
      7 C          62.7765   89.2897   11.8141 C.ar    1  UNL1        0.0061
      8 C          63.1404   90.7449   11.8088 C.ar    1  UNL1        0.0608
      9 C          64.1341   91.2731   12.8006 C.ar    1  UNL1        0.2610
     10 O          64.4981   92.7282   12.7953 O.2     1  UNL1       -0.2670
     11 N          64.7639   90.3461   13.7976 N.ar    1  UNL1       -0.2935
     12 C          65.7576   90.8742   14.7894 C.3     1  UNL1        0.1335
     13 C          61.7828   88.7616   10.8223 C.ar    1  UNL1        0.0003
     14 C          60.3218   88.7431   11.1617 C.ar    1  UNL1        0.0023
     15 C          59.3281   88.2149   10.1698 C.ar    1  UNL1        0.0296
     16 C          59.7954   87.7053    8.8387 C.ar    1  UNL1        0.1401
     17 F          58.8017   87.1771    7.8469 F       1  UNL1       -0.2042
     18 C          61.2564   87.7238    8.4994 C.ar    1  UNL1        0.0296
     19 C          62.2501   88.2519    9.4911 C.ar    1  UNL1        0.0023
     20 C          63.3080   84.5254   13.8187 C.3     1  UNL1        0.1647
     21 C          62.9440   83.0703   13.8239 C.ar    1  UNL1        0.0112
     22 C          64.0203   82.0276   13.7564 C.ar    1  UNL1       -0.0005
     23 C          63.6563   80.5725   13.7616 C.ar    1  UNL1        0.0112
     24 C          62.2160   80.1599   13.8344 C.ar    1  UNL1        0.0577
     25 CL         61.8520   78.7048   13.8396 Cl      1  UNL1       -0.0822
     26 C          61.1397   81.2025   13.9018 C.ar    1  UNL1        0.0112
     27 C          61.5037   82.6577   13.8966 C.ar    1  UNL1       -0.0005
     28 C          62.9514   84.6094   12.3642 C.ar    1  UNL1        0.0901
     29 C          61.7396   85.2822   11.7908 C.ar    1  UNL1        0.1163
     30 N          61.7833   85.1239   10.2998 N.ar    1  UNL1       -0.2226
     31 C          63.0223   84.3532    9.9516 C.ar    1  UNL1        0.1784
     32 N          63.7442   84.0352   11.2274 N.ar    1  UNL1       -0.3080
     33 C          65.0326   83.2764   11.3459 C.3     1  UNL1        0.1318
     34 C          62.6263   84.7265   16.3177 C.3     1  UNL1        0.1753
     35 O          63.6645   84.4414   15.2733 O.3     1  UNL1       -0.3422
@<TRIPOS>BOND
     1    34    35    1
     2    35    20    1
     3    20    21    1
     4    21    22   ar
     5    22    23   ar
     6    23    24   ar
     7    24    25    1
     8    24    26   ar
     9    26    27   ar
    10    20     1    1
    11     1     2   ar
    12     2     3   ar
    13     3     4   ar
    14     4     5   ar
    15     5     6   ar
    16     5     7   ar
    17     7    13    1
    18    13    14   ar
    19    14    15   ar
    20    15    16   ar
    21    16    17    1
    22    16    18   ar
    23    18    19   ar
    24     7     8   ar
    25     8     9   ar
    26     9    10    2
    27     9    11   ar
    28    11    12    1
    29    20    28    1
    30    28    29   ar
    31    29    30   ar
    32    30    31   ar
    33    31    32   ar
    34    32    33    1
    35    27    21   ar
    36     6     1   ar
    37    19    13   ar
    38    32    28   ar
    39    11     4   ar
@<TRIPOS>MOLECULE
*****
 35 39 0 0 0
SMALL
GASTEIGER

@<TRIPOS>ATOM
      1 C          63.4333   86.1301   13.2884 C.ar    1  UNL1        0.0113
      2 C          64.3083   86.7506   14.3368 C.ar    1  UNL1        0.0001
      3 C          64.6185   88.2172   14.2829 C.ar    1  UNL1        0.0170
      4 C          64.0536   89.0632   13.1805 C.ar    1  UNL1        0.0625
      5 C          63.1786   88.4426   12.1321 C.ar    1  UNL1        0.0158
      6 C          62.8684   86.9761   12.1860 C.ar    1  UNL1        0.0001
      7 C          62.6137   89.2886   11.0297 C.ar    1  UNL1        0.0061
      8 C          62.9239   90.7552   10.9757 C.ar    1  UNL1        0.0608
      9 C          63.7990   91.3758   12.0242 C.ar    1  UNL1        0.2610
     10 O          64.1091   92.8424   11.9702 O.2     1  UNL1       -0.2670
     11 N          64.3638   90.5298   13.1266 N.ar    1  UNL1       -0.2935
     12 C          65.2388   91.1504   14.1750 C.3     1  UNL1        0.1335
     13 C          61.7387   88.6681    9.9813 C.ar    1  UNL1        0.0003
     14 C          60.5656   89.4283    9.4373 C.ar    1  UNL1        0.0023
     15 C          59.6906   88.8077    8.3889 C.ar    1  UNL1        0.0296
     16 C          59.9887   87.4269    7.8844 C.ar    1  UNL1        0.1401
     17 F          59.1136   86.8062    6.8359 F       1  UNL1       -0.2042
     18 C          61.1618   86.6666    8.4284 C.ar    1  UNL1        0.0296
     19 C          62.0368   87.2872    9.4768 C.ar    1  UNL1        0.0023
     20 C          63.1231   84.6634   13.3423 C.3     1  UNL1        0.1647
     21 C          62.8129   83.1969   13.3963 C.ar    1  UNL1        0.0112
     22 C          61.6046   82.7127   14.1419 C.ar    1  UNL1       -0.0005
     23 C          61.2944   81.2462   14.1958 C.ar    1  UNL1        0.0112
     24 C          62.1924   80.2637   13.5043 C.ar    1  UNL1        0.0577
     25 CL         61.8822   78.7971   13.5582 Cl      1  UNL1       -0.0822
     26 C          63.4006   80.7477   12.7587 C.ar    1  UNL1        0.0112
     27 C          63.7109   82.2144   12.7047 C.ar    1  UNL1       -0.0005
     28 C          62.7874   84.7880   14.7989 C.ar    1  UNL1        0.0901
     29 C          61.5680   85.4497   15.3693 C.ar    1  UNL1        0.1163
     30 N          61.6393   85.3434   16.8640 N.ar    1  UNL1       -0.2226
     31 C          62.9027   84.6161   17.2172 C.ar    1  UNL1        0.1784
     32 N          63.6123   84.2728   15.9411 N.ar    1  UNL1       -0.3080
     33 C          64.9176   83.5426   15.8269 C.3     1  UNL1        0.1318
     34 C          62.3958   84.1485   10.9019 C.3     1  UNL1        0.1753
     35 O          63.4587   84.5388   11.8857 O.3     1  UNL1       -0.3422
@<TRIPOS>BOND
     1    34    35    1
     2    35    20    1
     3    20    21    1
     4    21    22   ar
     5    22    23   ar
     6    23    24   ar
     7    24    25    1
     8    24    26   ar
     9    26    27   ar
    10    20     1    1
    11     1     2   ar
    12     2     3   ar
    13     3     4   ar
    14     4     5   ar
    15     5     6   ar
    16     5     7   ar
    17     7    13    1
    18    13    14   ar
    19    14    15   ar
    20    15    16   ar
    21    16    17    1
    22    16    18   ar
    23    18    19   ar
    24     7     8   ar
    25     8     9   ar
    26     9    10    2
    27     9    11   ar
    28    11    12    1
    29    20    28    1
    30    28    29   ar
    31    29    30   ar
    32    30    31   ar
    33    31    32   ar
    34    32    33    1
    35    27    21   ar
    36     6     1   ar
    37    19    13   ar
    38    32    28   ar
    39    11     4   ar
@<TRIPOS>MOLECULE
*****
 35 39 0 0 0
SMALL
GASTEIGER

@<TRIPOS>ATOM
      1 C          61.8636   85.9445   10.8305 C.ar    1  UNL1        0.0113
      2 C          61.8488   84.4613   10.6073 C.ar    1  UNL1        0.0001
      3 C          62.4800   83.5452   11.6135 C.ar    1  UNL1        0.0170
      4 C          63.1260   84.1123   12.8427 C.ar    1  UNL1        0.0625
      5 C          63.1407   85.5955   13.0659 C.ar    1  UNL1        0.0158
      6 C          62.5096   86.5116   12.0597 C.ar    1  UNL1        0.0001
      7 C          63.7867   86.1627   14.2951 C.ar    1  UNL1        0.0061
      8 C          64.4179   85.2466   15.3013 C.ar    1  UNL1        0.0608
      9 C          64.4031   83.7633   15.0782 C.ar    1  UNL1        0.2610
     10 O          65.0343   82.8472   16.0843 O.2     1  UNL1       -0.2670
     11 N          63.7572   83.1962   13.8489 N.ar    1  UNL1       -0.2935
     12 C          63.7424   81.7130   13.6258 C.3     1  UNL1        0.1335
     13 C          63.8015   87.6459   14.5183 C.ar    1  UNL1        0.0003
     14 C          64.2903   88.5623   13.4360 C.ar    1  UNL1        0.0023
     15 C          64.3051   90.0456   13.6592 C.ar    1  UNL1        0.0296
     16 C          63.8310   90.6124   14.9646 C.ar    1  UNL1        0.1401
     17 F          63.8458   92.0956   15.1878 F       1  UNL1       -0.2042
     18 C          63.3422   89.6959   16.0468 C.ar    1  UNL1        0.0296
     19 C          63.3274   88.2127   15.8237 C.ar    1  UNL1        0.0023
     20 C          61.2324   86.8607    9.8243 C.3     1  UNL1        0.1647
     21 C          60.6012   87.7768    8.8182 C.ar    1  UNL1        0.0112
     22 C          60.8530   89.2540    8.8871 C.ar    1  UNL1       -0.0005
     23 C          60.2218   90.1701    7.8811 C.ar    1  UNL1        0.0112
     24 C          59.3389   89.6092    6.8060 C.ar    1  UNL1        0.0577
     25 CL         58.7077   90.5254    5.7999 Cl      1  UNL1       -0.0822
     26 C          59.0871   88.1321    6.7370 C.ar    1  UNL1        0.0112
     27 C          59.7183   87.2159    7.7432 C.ar    1  UNL1       -0.0005
     28 C          60.8892   87.8267   10.9192 C.ar    1  UNL1        0.0901
     29 C          59.7041   87.7374   11.8344 C.ar    1  UNL1        0.1163
     30 N          59.7533   88.9072   12.7721 N.ar    1  UNL1       -0.2226
     31 C          60.9690   89.7195   12.4365 C.ar    1  UNL1        0.1784
     32 N          61.6710   89.0517   11.2914 N.ar    1  UNL1       -0.3080
     33 C          62.9331   89.5256   10.6338 C.3     1  UNL1        0.1318
     34 C          63.0009   85.7337    8.2906 C.3     1  UNL1        0.1753
     35 O          61.5756   85.8946    8.7293 O.3     1  UNL1       -0.3422
@<TRIPOS>BOND
     1    34    35    1
     2    35    20    1
     3    20    21    1
     4    21    22   ar
     5    22    23   ar
     6    23    24   ar
     7    24    25    1
     8    24    26   ar
     9    26    27   ar
    10    20     1    1
    11     1     2   ar
    12     2     3   ar
    13     3     4   ar
    14     4     5   ar
    15     5     6   ar
    16     5     7   ar
    17     7    13    1
    18    13    14   ar
    19    14    15   ar
    20    15    16   ar
    21    16    17    1
    22    16    18   ar
    23    18    19   ar
    24     7     8   ar
    25     8     9   ar
    26     9    10    2
    27     9    11   ar
    28    11    12    1
    29    20    28    1
    30    28    29   ar
    31    29    30   ar
    32    30    31   ar
    33    31    32   ar
    34    32    33    1
    35    27    21   ar
    36     6     1   ar
    37    19    13   ar
    38    32    28   ar
    39    11     4   ar
