@<TRIPOS>MOLECULE
*****
 35 38 0 0 0
SMALL
GASTEIGER

@<TRIPOS>ATOM
      1 N          63.0493   90.9323   11.7056 N.am    1  UNL1       -0.2438
      2 C          63.5664   91.5671   10.4487 C.3     1  UNL1        0.1009
      3 C          64.7528   92.4833   10.5045 C.3     1  UNL1        0.0662
      4 C          65.4220   92.7647   11.8171 C.3     1  UNL1        0.1600
      5 O          64.9049   92.1300   13.0739 O.3     1  UNL1       -0.4374
      6 C          63.7185   91.2138   13.0182 C.2     1  UNL1        0.4051
      7 O          63.2014   90.5791   14.2751 O.2     1  UNL1       -0.2262
      8 C          66.2744   93.5977   10.9062 C.ar    1  UNL1        0.0138
      9 C          67.1491   92.9350    9.8837 C.ar    1  UNL1       -0.0010
     10 C          68.0015   93.7680    8.9728 C.ar    1  UNL1       -0.0002
     11 C          67.9790   95.2636    9.0846 C.ar    1  UNL1       -0.0000
     12 C          67.1043   95.9263   10.1071 C.ar    1  UNL1       -0.0002
     13 C          66.2520   95.0934   11.0180 C.ar    1  UNL1       -0.0010
     14 C          61.8629   90.0162   11.6499 C.3     1  UNL1        0.1011
     15 C          60.4817   90.5851   11.5137 C.3     1  UNL1        0.0265
     16 C          62.4475   85.5608   11.8910 C.ar    1  UNL1        0.0001
     17 C          61.3416   86.1278   11.0510 C.ar    1  UNL1       -0.0003
     18 C          61.1467   87.6129   10.9706 C.ar    1  UNL1       -0.0027
     19 C          62.0578   88.5311   11.7302 C.ar    1  UNL1       -0.0042
     20 C          63.1637   87.9641   12.5702 C.ar    1  UNL1       -0.0027
     21 C          63.3586   86.4790   12.6505 C.ar    1  UNL1       -0.0003
     22 C          62.0553   81.1076   14.5396 C.3     1  UNL1        0.0521
     23 C          62.4463   81.8491   13.2956 C.ar    1  UNL1        0.0590
     24 C          62.2515   83.3342   13.2152 C.ar    1  UNL1        0.0147
     25 C          62.6424   84.0757   11.9713 C.ar    1  UNL1        0.0023
     26 C          63.2282   83.3321   10.8078 C.ar    1  UNL1        0.0147
     27 C          63.4230   81.8470   10.8882 C.ar    1  UNL1        0.0590
     28 C          64.0088   81.1033    9.7246 C.3     1  UNL1        0.0521
     29 N          63.0321   81.1055   12.1321 N.ar    1  UNL1       -0.2540
     30 C          66.3872   93.3355   12.8134 C.3     1  UNL1        0.0714
     31 C          67.0485   92.4373   13.8164 C.3     1  UNL1        0.0922
     32 C          67.7568   91.7191   12.7063 C.3     1  UNL1        0.0294
     33 C          66.3403   93.1555   14.9266 C.3     1  UNL1        0.0294
     34 O          67.7099   91.5392   14.8195 O.3     1  UNL1       -0.3866
     35 H          68.2843   90.9077   14.3588 H       1  UNL1        0.2102
@<TRIPOS>BOND
     1    22    23    1
     2    23    24   ar
     3    24    25   ar
     4    25    16    1
     5    16    17   ar
     6    17    18   ar
     7    18    19   ar
     8    19    14    1
     9    14    15    1
    10    14     1    1
    11     1     2    1
    12     2     3    1
    13     3     4    1
    14     4    30    1
    15    30    31    1
    16    31    32    1
    17    31    33    1
    18    31    34    1
    19     4     8    1
    20     8     9   ar
    21     9    10   ar
    22    10    11   ar
    23    11    12   ar
    24    12    13   ar
    25     4     5    1
    26     5     6    1
    27     6     7    2
    28    19    20   ar
    29    20    21   ar
    30    25    26   ar
    31    26    27   ar
    32    27    28    1
    33    27    29   ar
    34    29    23   ar
    35    21    16   ar
    36     6     1   am
    37    13     8   ar
    38    34    35    1
@<TRIPOS>MOLECULE
*****
 35 38 0 0 0
SMALL
GASTEIGER

@<TRIPOS>ATOM
      1 N          63.0506   90.9291   11.7049 N.am    1  UNL1       -0.2438
      2 C          63.5659   91.5629   10.4468 C.3     1  UNL1        0.1009
      3 C          64.7516   92.4800   10.5002 C.3     1  UNL1        0.0662
      4 C          65.4222   92.7633   11.8117 C.3     1  UNL1        0.1600
      5 O          64.9070   92.1296   13.0698 O.3     1  UNL1       -0.4374
      6 C          63.7212   91.2124   13.0164 C.2     1  UNL1        0.4051
      7 O          63.2061   90.5787   14.2746 O.2     1  UNL1       -0.2262
      8 C          66.2729   93.5959   10.8989 C.ar    1  UNL1        0.0138
      9 C          66.2411   95.0920   11.0015 C.ar    1  UNL1       -0.0010
     10 C          67.0918   95.9246   10.0886 C.ar    1  UNL1       -0.0002
     11 C          67.9742   95.2610    9.0733 C.ar    1  UNL1       -0.0000
     12 C          68.0060   93.7649    8.9708 C.ar    1  UNL1       -0.0002
     13 C          67.1554   92.9323    9.8835 C.ar    1  UNL1       -0.0010
     14 C          61.8649   90.0120   11.6516 C.3     1  UNL1        0.1011
     15 C          60.4830   90.5798   11.5177 C.3     1  UNL1        0.0265
     16 C          62.4533   85.5572   11.8931 C.ar    1  UNL1        0.0001
     17 C          61.3466   86.1231   11.0536 C.ar    1  UNL1       -0.0003
     18 C          61.1504   87.6080   10.9730 C.ar    1  UNL1       -0.0027
     19 C          62.0611   88.5271   11.7321 C.ar    1  UNL1       -0.0042
     20 C          63.1679   87.9612   12.5716 C.ar    1  UNL1       -0.0027
     21 C          63.3640   86.4762   12.6520 C.ar    1  UNL1       -0.0003
     22 C          64.0007   81.0982    9.7198 C.3     1  UNL1        0.0521
     23 C          63.4232   81.8427   10.8869 C.ar    1  UNL1        0.0590
     24 C          63.2270   83.3276   10.8065 C.ar    1  UNL1        0.0147
     25 C          62.6495   84.0722   11.9735 C.ar    1  UNL1        0.0023
     26 C          62.2681   83.3318   13.2210 C.ar    1  UNL1        0.0147
     27 C          62.4642   81.8469   13.3015 C.ar    1  UNL1        0.0590
     28 C          62.0828   81.1065   14.5490 C.3     1  UNL1        0.0521
     29 N          63.0417   81.1024   12.1344 N.ar    1  UNL1       -0.2540
     30 C          66.3882   93.3358   12.8062 C.3     1  UNL1        0.0714
     31 C          67.0531   92.4388   13.8078 C.3     1  UNL1        0.0922
     32 C          66.3300   93.1423   14.9178 C.3     1  UNL1        0.0294
     33 C          67.7763   91.7353   12.6979 C.3     1  UNL1        0.0294
     34 O          67.7181   91.5418   14.8095 O.3     1  UNL1       -0.3866
     35 H          67.4205   91.7774   15.7022 H       1  UNL1        0.2102
@<TRIPOS>BOND
     1    22    23    1
     2    23    24   ar
     3    24    25   ar
     4    25    16    1
     5    16    17   ar
     6    17    18   ar
     7    18    19   ar
     8    19    14    1
     9    14    15    1
    10    14     1    1
    11     1     2    1
    12     2     3    1
    13     3     4    1
    14     4    30    1
    15    30    31    1
    16    31    32    1
    17    31    33    1
    18    31    34    1
    19     4     8    1
    20     8     9   ar
    21     9    10   ar
    22    10    11   ar
    23    11    12   ar
    24    12    13   ar
    25     4     5    1
    26     5     6    1
    27     6     7    2
    28    19    20   ar
    29    20    21   ar
    30    25    26   ar
    31    26    27   ar
    32    27    28    1
    33    27    29   ar
    34    29    23   ar
    35    21    16   ar
    36     6     1   am
    37    13     8   ar
    38    34    35    1
@<TRIPOS>MOLECULE
*****
 35 38 0 0 0
SMALL
GASTEIGER

@<TRIPOS>ATOM
      1 N          63.3988   90.4349   11.9336 N.am    1  UNL1       -0.2438
      2 C          64.0524   90.2410   13.2698 C.3     1  UNL1        0.1009
      3 C          65.2244   91.0911   13.6617 C.3     1  UNL1        0.0662
      4 C          65.7429   92.1351   12.7176 C.3     1  UNL1        0.1600
      5 O          65.0893   92.3289   11.3815 O.3     1  UNL1       -0.4374
      6 C          63.9172   91.4789   10.9895 C.2     1  UNL1        0.4051
      7 O          63.2637   91.6727    9.6534 O.2     1  UNL1       -0.2262
      8 C          66.6909   92.3269   13.8642 C.ar    1  UNL1        0.0138
      9 C          68.1622   92.1149   13.6643 C.ar    1  UNL1       -0.0010
     10 C          69.1103   92.3067   14.8109 C.ar    1  UNL1       -0.0002
     11 C          68.5867   92.7105   16.1573 C.ar    1  UNL1       -0.0000
     12 C          67.1153   92.9224   16.3572 C.ar    1  UNL1       -0.0002
     13 C          66.1674   92.7306   15.2107 C.ar    1  UNL1       -0.0010
     14 C          62.2268   89.5848   11.5416 C.3     1  UNL1        0.1011
     15 C          60.9664   90.2284   11.0444 C.3     1  UNL1        0.0265
     16 C          62.4918   85.1038   11.8573 C.ar    1  UNL1        0.0001
     17 C          61.5823   85.7317   10.8431 C.ar    1  UNL1       -0.0003
     18 C          61.4940   87.2253   10.7379 C.ar    1  UNL1       -0.0027
     19 C          62.3151   88.0912   11.6469 C.ar    1  UNL1       -0.0042
     20 C          63.2246   87.4632   12.6611 C.ar    1  UNL1       -0.0027
     21 C          63.3129   85.9695   12.7663 C.ar    1  UNL1       -0.0003
     22 C          63.4501   80.4876    9.6727 C.3     1  UNL1        0.0521
     23 C          63.0593   81.3020   10.8702 C.ar    1  UNL1        0.0590
     24 C          62.9709   82.7956   10.7650 C.ar    1  UNL1        0.0147
     25 C          62.5801   83.6100   11.9625 C.ar    1  UNL1        0.0023
     26 C          62.2777   82.9307   13.2652 C.ar    1  UNL1        0.0147
     27 C          62.3660   81.4371   13.3704 C.ar    1  UNL1        0.0590
     28 C          62.0635   80.7577   14.6731 C.3     1  UNL1        0.0521
     29 N          62.7568   80.6227   12.1729 N.ar    1  UNL1       -0.2540
     30 C          66.5905   93.2456   12.1717 C.3     1  UNL1        0.0714
     31 C          66.5169   93.5991   10.7158 C.3     1  UNL1        0.0922
     32 C          67.3480   92.3959   10.3817 C.3     1  UNL1        0.0294
     33 C          65.6859   94.8023   11.0499 C.3     1  UNL1        0.0294
     34 O          66.4433   93.9526    9.2598 O.3     1  UNL1       -0.3866
     35 H          66.9342   93.2952    8.7423 H       1  UNL1        0.2102
@<TRIPOS>BOND
     1    22    23    1
     2    23    24   ar
     3    24    25   ar
     4    25    16    1
     5    16    17   ar
     6    17    18   ar
     7    18    19   ar
     8    19    14    1
     9    14    15    1
    10    14     1    1
    11     1     2    1
    12     2     3    1
    13     3     4    1
    14     4    30    1
    15    30    31    1
    16    31    32    1
    17    31    33    1
    18    31    34    1
    19     4     8    1
    20     8     9   ar
    21     9    10   ar
    22    10    11   ar
    23    11    12   ar
    24    12    13   ar
    25     4     5    1
    26     5     6    1
    27     6     7    2
    28    19    20   ar
    29    20    21   ar
    30    25    26   ar
    31    26    27   ar
    32    27    28    1
    33    27    29   ar
    34    29    23   ar
    35    21    16   ar
    36     6     1   am
    37    13     8   ar
    38    34    35    1
@<TRIPOS>MOLECULE
*****
 35 38 0 0 0
SMALL
GASTEIGER

@<TRIPOS>ATOM
      1 N          63.4045   90.4373   11.9305 N.am    1  UNL1       -0.2438
      2 C          64.0583   90.2451   13.2668 C.3     1  UNL1        0.1009
      3 C          65.2325   91.0934   13.6561 C.3     1  UNL1        0.0662
      4 C          65.7529   92.1339   12.7093 C.3     1  UNL1        0.1600
      5 O          65.0991   92.3261   11.3730 O.3     1  UNL1       -0.4374
      6 C          63.9249   91.4778   10.9836 C.2     1  UNL1        0.4051
      7 O          63.2711   91.6700    9.6474 O.2     1  UNL1       -0.2262
      8 C          66.7019   92.3262   13.8549 C.ar    1  UNL1        0.0138
      9 C          66.1819   92.7505   15.1963 C.ar    1  UNL1       -0.0010
     10 C          67.1310   92.9428   16.3420 C.ar    1  UNL1       -0.0002
     11 C          68.5999   92.7109   16.1460 C.ar    1  UNL1       -0.0000
     12 C          69.1199   92.2866   14.8046 C.ar    1  UNL1       -0.0002
     13 C          68.1709   92.0943   13.6590 C.ar    1  UNL1       -0.0010
     14 C          62.2303   89.5890   11.5411 C.3     1  UNL1        0.1011
     15 C          60.9695   90.2345   11.0476 C.3     1  UNL1        0.0265
     16 C          62.4903   85.1074   11.8535 C.ar    1  UNL1        0.0001
     17 C          63.3134   85.9716   12.7622 C.ar    1  UNL1       -0.0003
     18 C          63.2268   87.4654   12.6580 C.ar    1  UNL1       -0.0027
     19 C          62.3170   88.0951   11.6452 C.ar    1  UNL1       -0.0042
     20 C          61.4938   87.2310   10.7366 C.ar    1  UNL1       -0.0027
     21 C          61.5805   85.7370   10.8407 C.ar    1  UNL1       -0.0003
     22 C          62.0256   80.7575   14.6576 C.3     1  UNL1        0.0521
     23 C          62.3447   81.4386   13.3597 C.ar    1  UNL1        0.0590
     24 C          62.2580   82.9324   13.2555 C.ar    1  UNL1        0.0147
     25 C          62.5770   83.6135   11.9577 C.ar    1  UNL1        0.0023
     26 C          62.9828   82.8007   10.7641 C.ar    1  UNL1        0.0147
     27 C          63.0694   81.3069   10.8683 C.ar    1  UNL1        0.0590
     28 C          63.4752   80.4940    9.6746 C.3     1  UNL1        0.0521
     29 N          62.7504   80.6258   12.1661 N.ar    1  UNL1       -0.2540
     30 C          66.6028   93.2412   12.1603 C.3     1  UNL1        0.0714
     31 C          66.5222   93.5978   10.7055 C.3     1  UNL1        0.0922
     32 C          65.6933   94.8006   11.0464 C.3     1  UNL1        0.0294
     33 C          67.3510   92.3950   10.3646 C.3     1  UNL1        0.0294
     34 O          66.4415   93.9545    9.2507 O.3     1  UNL1       -0.3866
     35 H          65.9187   94.7647    9.1450 H       1  UNL1        0.2102
@<TRIPOS>BOND
     1    22    23    1
     2    23    24   ar
     3    24    25   ar
     4    25    16    1
     5    16    17   ar
     6    17    18   ar
     7    18    19   ar
     8    19    14    1
     9    14    15    1
    10    14     1    1
    11     1     2    1
    12     2     3    1
    13     3     4    1
    14     4    30    1
    15    30    31    1
    16    31    32    1
    17    31    33    1
    18    31    34    1
    19     4     8    1
    20     8     9   ar
    21     9    10   ar
    22    10    11   ar
    23    11    12   ar
    24    12    13   ar
    25     4     5    1
    26     5     6    1
    27     6     7    2
    28    19    20   ar
    29    20    21   ar
    30    25    26   ar
    31    26    27   ar
    32    27    28    1
    33    27    29   ar
    34    29    23   ar
    35    21    16   ar
    36     6     1   am
    37    13     8   ar
    38    34    35    1
@<TRIPOS>MOLECULE
*****
 35 38 0 0 0
SMALL
GASTEIGER

@<TRIPOS>ATOM
      1 N          62.1805   87.2947   11.9910 N.am    1  UNL1       -0.2438
      2 C          61.7759   86.1196   11.1511 C.3     1  UNL1        0.1009
      3 C          62.2910   84.7498   11.4800 C.3     1  UNL1        0.0662
      4 C          63.2108   84.5550   12.6488 C.3     1  UNL1        0.1600
      5 O          63.6155   85.7301   13.4887 O.3     1  UNL1       -0.4374
      6 C          63.1003   87.1000   13.1598 C.2     1  UNL1        0.4051
      7 O          63.5050   88.2750   13.9997 O.2     1  UNL1       -0.2262
      8 C          63.1140   83.1419   12.1552 C.ar    1  UNL1        0.0138
      9 C          63.6234   82.7878   10.7896 C.ar    1  UNL1       -0.0010
     10 C          63.5265   81.3745   10.2960 C.ar    1  UNL1       -0.0002
     11 C          62.9201   80.3155   11.1682 C.ar    1  UNL1       -0.0000
     12 C          62.4107   80.6696   12.5339 C.ar    1  UNL1       -0.0002
     13 C          62.5076   82.0828   13.0274 C.ar    1  UNL1       -0.0010
     14 C          61.6654   88.6645   11.6622 C.3     1  UNL1        0.1011
     15 C          60.1879   88.9113   11.5835 C.3     1  UNL1        0.0265
     16 C          64.5523   92.0337   10.9113 C.ar    1  UNL1        0.0001
     17 C          63.7085   91.5050    9.7895 C.ar    1  UNL1       -0.0003
     18 C          62.7462   90.3820   10.0397 C.ar    1  UNL1       -0.0027
     19 C          62.6277   89.7875   11.4119 C.ar    1  UNL1       -0.0042
     20 C          63.4715   90.3162   12.5337 C.ar    1  UNL1       -0.0027
     21 C          64.4339   91.4393   12.2834 C.ar    1  UNL1       -0.0003
     22 C          66.2021   96.8560   11.9234 C.3     1  UNL1        0.0521
     23 C          66.3395   95.5679   11.1670 C.ar    1  UNL1        0.0590
     24 C          65.3772   94.4448   11.4173 C.ar    1  UNL1        0.0147
     25 C          65.5147   93.1568   10.6609 C.ar    1  UNL1        0.0023
     26 C          66.6144   92.9918    9.6543 C.ar    1  UNL1        0.0147
     27 C          67.5767   94.1149    9.4040 C.ar    1  UNL1        0.0590
     28 C          68.6765   93.9500    8.3973 C.3     1  UNL1        0.0521
     29 N          67.4392   95.4029   10.1604 N.ar    1  UNL1       -0.2540
     30 C          64.0970   83.8695   13.6461 C.3     1  UNL1        0.0714
     31 C          64.3634   84.5087   14.9767 C.3     1  UNL1        0.0922
     32 C          65.7461   84.8740   14.5244 C.3     1  UNL1        0.0294
     33 C          62.9807   84.1433   15.4291 C.3     1  UNL1        0.0294
     34 O          64.6298   85.1479   16.3074 O.3     1  UNL1       -0.3866
     35 H          65.5302   85.5084   16.3184 H       1  UNL1        0.2102
@<TRIPOS>BOND
     1    22    23    1
     2    23    24   ar
     3    24    25   ar
     4    25    16    1
     5    16    17   ar
     6    17    18   ar
     7    18    19   ar
     8    19    14    1
     9    14    15    1
    10    14     1    1
    11     1     2    1
    12     2     3    1
    13     3     4    1
    14     4    30    1
    15    30    31    1
    16    31    32    1
    17    31    33    1
    18    31    34    1
    19     4     8    1
    20     8     9   ar
    21     9    10   ar
    22    10    11   ar
    23    11    12   ar
    24    12    13   ar
    25     4     5    1
    26     5     6    1
    27     6     7    2
    28    19    20   ar
    29    20    21   ar
    30    25    26   ar
    31    26    27   ar
    32    27    28    1
    33    27    29   ar
    34    29    23   ar
    35    21    16   ar
    36     6     1   am
    37    13     8   ar
    38    34    35    1
@<TRIPOS>MOLECULE
*****
 35 38 0 0 0
SMALL
GASTEIGER

@<TRIPOS>ATOM
      1 N          62.1809   87.2741   11.9733 N.am    1  UNL1       -0.2438
      2 C          61.7734   86.0918   11.1449 C.3     1  UNL1        0.1009
      3 C          62.2832   84.7237   11.4888 C.3     1  UNL1        0.0662
      4 C          63.2005   84.5378   12.6610 C.3     1  UNL1        0.1600
      5 O          63.6079   85.7201   13.4893 O.3     1  UNL1       -0.4374
      6 C          63.0981   87.0883   13.1455 C.2     1  UNL1        0.4051
      7 O          63.5056   88.2705   13.9738 O.2     1  UNL1       -0.2262
      8 C          63.0994   83.1200   12.1820 C.ar    1  UNL1        0.0138
      9 C          63.6187   82.7480   10.8248 C.ar    1  UNL1       -0.0010
     10 C          63.5176   81.3301   10.3458 C.ar    1  UNL1       -0.0002
     11 C          62.8971   80.2843   11.2240 C.ar    1  UNL1       -0.0000
     12 C          62.3778   80.6562   12.5811 C.ar    1  UNL1       -0.0002
     13 C          62.4789   82.0741   13.0601 C.ar    1  UNL1       -0.0010
     14 C          61.6711   88.6423   11.6294 C.3     1  UNL1        0.1011
     15 C          60.1950   88.8891   11.5283 C.3     1  UNL1        0.0265
     16 C          64.5700   92.0061   10.9011 C.ar    1  UNL1        0.0001
     17 C          64.4553   91.3975   12.2672 C.ar    1  UNL1       -0.0003
     18 C          63.4890   90.2762   12.5100 C.ar    1  UNL1       -0.0027
     19 C          62.6374   89.7635   11.3866 C.ar    1  UNL1       -0.0042
     20 C          62.7521   90.3722   10.0205 C.ar    1  UNL1       -0.0027
     21 C          63.7184   91.4935    9.7777 C.ar    1  UNL1       -0.0003
     22 C          68.7690   93.8840    8.4841 C.3     1  UNL1        0.0521
     23 C          67.6359   94.0663    9.4498 C.ar    1  UNL1        0.0590
     24 C          66.6695   92.9451    9.6926 C.ar    1  UNL1        0.0147
     25 C          65.5364   93.1275   10.6583 C.ar    1  UNL1        0.0023
     26 C          65.3695   94.4311   11.3813 C.ar    1  UNL1        0.0147
     27 C          66.3358   95.5523   11.1386 C.ar    1  UNL1        0.0590
     28 C          66.1690   96.8560   11.8615 C.3     1  UNL1        0.0521
     29 N          67.4690   95.3699   10.1728 N.ar    1  UNL1       -0.2540
     30 C          64.0826   83.8596   13.6668 C.3     1  UNL1        0.0714
     31 C          64.3502   84.5121   14.9907 C.3     1  UNL1        0.0922
     32 C          62.9671   84.1534   15.4470 C.3     1  UNL1        0.0294
     33 C          65.7333   84.8709   14.5344 C.3     1  UNL1        0.0294
     34 O          64.6178   85.1647   16.3146 O.3     1  UNL1       -0.3866
     35 H          63.8322   85.0867   16.8782 H       1  UNL1        0.2102
@<TRIPOS>BOND
     1    22    23    1
     2    23    24   ar
     3    24    25   ar
     4    25    16    1
     5    16    17   ar
     6    17    18   ar
     7    18    19   ar
     8    19    14    1
     9    14    15    1
    10    14     1    1
    11     1     2    1
    12     2     3    1
    13     3     4    1
    14     4    30    1
    15    30    31    1
    16    31    32    1
    17    31    33    1
    18    31    34    1
    19     4     8    1
    20     8     9   ar
    21     9    10   ar
    22    10    11   ar
    23    11    12   ar
    24    12    13   ar
    25     4     5    1
    26     5     6    1
    27     6     7    2
    28    19    20   ar
    29    20    21   ar
    30    25    26   ar
    31    26    27   ar
    32    27    28    1
    33    27    29   ar
    34    29    23   ar
    35    21    16   ar
    36     6     1   am
    37    13     8   ar
    38    34    35    1
@<TRIPOS>MOLECULE
*****
 35 38 0 0 0
SMALL
GASTEIGER

@<TRIPOS>ATOM
      1 N          62.1772   86.4534   11.4366 N.am    1  UNL1       -0.2438
      2 C          61.8204   85.2262   10.6512 C.3     1  UNL1        0.1009
      3 C          62.2719   83.8760   11.1234 C.3     1  UNL1        0.0662
      4 C          63.0801   83.7528   12.3810 C.3     1  UNL1        0.1600
      5 O          63.4369   84.9799   13.1664 O.3     1  UNL1       -0.4374
      6 C          62.9854   86.3302   12.6942 C.2     1  UNL1        0.4051
      7 O          63.3422   87.5573   13.4797 O.2     1  UNL1       -0.2262
      8 C          62.9936   82.3088   11.9845 C.ar    1  UNL1        0.0138
      9 C          62.5702   81.2791   12.9897 C.ar    1  UNL1       -0.0010
     10 C          62.4837   79.8350   12.5932 C.ar    1  UNL1       -0.0002
     11 C          62.8206   79.4207   11.1915 C.ar    1  UNL1       -0.0000
     12 C          63.2441   80.4504   10.1863 C.ar    1  UNL1       -0.0002
     13 C          63.3306   81.8944   10.5828 C.ar    1  UNL1       -0.0010
     14 C          61.7257   87.8036   10.9644 C.3     1  UNL1        0.1011
     15 C          60.4229   87.9460   10.2348 C.3     1  UNL1        0.0265
     16 C          64.2798   91.4271   11.7368 C.ar    1  UNL1        0.0001
     17 C          63.9882   90.4641   12.8493 C.ar    1  UNL1       -0.0003
     18 C          63.1368   89.2563   12.5918 C.ar    1  UNL1       -0.0027
     19 C          62.5771   89.0114   11.2219 C.ar    1  UNL1       -0.0042
     20 C          62.8687   89.9744   10.1094 C.ar    1  UNL1       -0.0027
     21 C          63.7201   91.1822   10.3668 C.ar    1  UNL1       -0.0003
     22 C          67.4500   94.1165   14.8540 C.3     1  UNL1        0.0521
     23 C          66.7163   93.9796   13.5529 C.ar    1  UNL1        0.0590
     24 C          65.8649   92.7718   13.2954 C.ar    1  UNL1        0.0147
     25 C          65.1312   92.6350   11.9942 C.ar    1  UNL1        0.0023
     26 C          65.2489   93.7059   10.9506 C.ar    1  UNL1        0.0147
     27 C          66.1003   94.9137   11.2081 C.ar    1  UNL1        0.0590
     28 C          66.2180   95.9847   10.1645 C.3     1  UNL1        0.0521
     29 N          66.8340   95.0506   12.5093 N.ar    1  UNL1       -0.2540
     30 C          63.8583   83.1282   13.5009 C.3     1  UNL1        0.0714
     31 C          64.1693   83.9245   14.7335 C.3     1  UNL1        0.0922
     32 C          65.5155   84.2709   14.1701 C.3     1  UNL1        0.0294
     33 C          62.8230   83.5781   15.2970 C.3     1  UNL1        0.0294
     34 O          64.4802   84.7208   15.9662 O.3     1  UNL1       -0.3866
     35 H          65.3681   85.1036   15.8883 H       1  UNL1        0.2102
@<TRIPOS>BOND
     1    22    23    1
     2    23    24   ar
     3    24    25   ar
     4    25    16    1
     5    16    17   ar
     6    17    18   ar
     7    18    19   ar
     8    19    14    1
     9    14    15    1
    10    14     1    1
    11     1     2    1
    12     2     3    1
    13     3     4    1
    14     4    30    1
    15    30    31    1
    16    31    32    1
    17    31    33    1
    18    31    34    1
    19     4     8    1
    20     8     9   ar
    21     9    10   ar
    22    10    11   ar
    23    11    12   ar
    24    12    13   ar
    25     4     5    1
    26     5     6    1
    27     6     7    2
    28    19    20   ar
    29    20    21   ar
    30    25    26   ar
    31    26    27   ar
    32    27    28    1
    33    27    29   ar
    34    29    23   ar
    35    21    16   ar
    36     6     1   am
    37    13     8   ar
    38    34    35    1
