@<TRIPOS>MOLECULE
*****
 29 31 0 0 0
SMALL
GASTEIGER

@<TRIPOS>ATOM
      1 C          64.0259   90.0874   13.3993 C.3     1  UNL1        0.1045
      2 C          63.2867   90.5216   12.1684 C.3     1  UNL1        0.0337
      3 C          62.7317   89.2963   11.5047 C.3     1  UNL1        0.0787
      4 C          61.9225   89.2674   10.2419 C.3     1  UNL1        0.0096
      5 C          63.1279   88.1048   12.3254 C.2     1  UNL1        0.2256
      6 O          62.7845   86.6753   12.0274 O.2     1  UNL1       -0.2749
      7 N          63.9277   88.5938   13.4963 N.am    1  UNL1       -0.2731
      8 C          64.2029   91.1734   15.7529 C.ar    1  UNL1        0.1392
      9 C          64.9152   92.0747   16.7174 C.ar    1  UNL1        0.0368
     10 C          66.1628   92.7912   16.2930 C.ar    1  UNL1        0.0062
     11 C          66.6981   92.6064   14.9040 C.ar    1  UNL1        0.0368
     12 C          65.9858   91.7052   13.9395 C.ar    1  UNL1        0.1392
     13 C          64.7382   90.9887   14.3639 C.ar    1  UNL1        0.0636
     14 C          63.0520   89.2002   16.9905 C.3     1  UNL1        0.2525
     15 O          62.9553   90.4569   16.1774 O.3     1  UNL1       -0.4716
     16 O          66.5210   91.5204   12.5504 O.3     1  UNL1       -0.4716
     17 C          66.4822   92.6586   11.5742 C.3     1  UNL1        0.2525
     18 C          64.5247   87.7392   14.5748 C.3     1  UNL1        0.1204
     19 C          64.1636   86.2862   14.6665 C.ar    1  UNL1       -0.0021
     20 C          64.9824   85.2624   13.9375 C.ar    1  UNL1        0.0005
     21 C          64.6213   83.8095   14.0291 C.ar    1  UNL1        0.0369
     22 C          63.4414   83.3802   14.8498 C.ar    1  UNL1        0.1468
     23 C          62.6226   84.4039   15.5788 C.ar    1  UNL1        0.0369
     24 C          62.9837   85.8569   15.4872 C.ar    1  UNL1        0.0005
     25 O          63.0804   81.9271   14.9414 O.3     1  UNL1       -0.4045
     26 C          62.7274   81.1623   13.7003 C.3     1  UNL1        0.5753
     27 F          62.3744   80.3974   12.4592 F       1  UNL1       -0.1328
     28 F          61.2967   81.5896   13.8439 F       1  UNL1       -0.1328
     29 F          64.1581   80.7349   13.5568 F       1  UNL1       -0.1328
@<TRIPOS>BOND
     1    14    15    1
     2    15     8    1
     3     8     9   ar
     4     9    10   ar
     5    10    11   ar
     6    11    12   ar
     7    12    16    1
     8    16    17    1
     9    12    13   ar
    10     1    13    1
    11     1     2    1
    12     2     3    1
    13     3     4    1
    14     3     5    1
    15     5     6    2
    16     5     7   am
    17     7    18    1
    18    18    19    1
    19    19    20   ar
    20    20    21   ar
    21    21    22   ar
    22    22    25    1
    23    25    26    1
    24    26    27    1
    25    26    28    1
    26    26    29    1
    27    22    23   ar
    28    23    24   ar
    29    13     8   ar
    30     7     1    1
    31    24    19   ar
@<TRIPOS>MOLECULE
*****
 29 31 0 0 0
SMALL
GASTEIGER

@<TRIPOS>ATOM
      1 C          63.9915   90.0574   13.3677 C.3     1  UNL1        0.1045
      2 C          63.2446   90.4877   12.1401 C.3     1  UNL1        0.0337
      3 C          62.6958   89.2593   11.4769 C.3     1  UNL1        0.0787
      4 C          61.8822   89.2263   10.2172 C.3     1  UNL1        0.0096
      5 C          63.1035   88.0697   12.2947 C.2     1  UNL1        0.2256
      6 O          62.7691   86.6382   11.9963 O.2     1  UNL1       -0.2749
      7 N          63.9042   88.5629   13.4632 N.am    1  UNL1       -0.2731
      8 C          65.9390   91.6923   13.9009 C.ar    1  UNL1        0.1392
      9 C          66.6484   92.5974   14.8639 C.ar    1  UNL1        0.0368
     10 C          66.1199   92.7727   16.2567 C.ar    1  UNL1        0.0062
     11 C          64.8820   92.0429   16.6866 C.ar    1  UNL1        0.0368
     12 C          64.1725   91.1378   15.7235 C.ar    1  UNL1        0.1392
     13 C          64.7010   90.9625   14.3307 C.ar    1  UNL1        0.0636
     14 C          66.3699   92.6428   11.5217 C.3     1  UNL1        0.2525
     15 O          66.4675   91.5170   12.5081 O.3     1  UNL1       -0.4716
     16 O          62.9345   90.4079   16.1533 O.3     1  UNL1       -0.4716
     17 C          63.0471   89.1686   16.9908 C.3     1  UNL1        0.2525
     18 C          64.5112   87.7113   14.5385 C.3     1  UNL1        0.1204
     19 C          64.1471   86.2598   14.6407 C.ar    1  UNL1       -0.0021
     20 C          62.9766   85.8372   15.4780 C.ar    1  UNL1        0.0005
     21 C          62.6126   84.3856   15.5801 C.ar    1  UNL1        0.0369
     22 C          63.4192   83.3566   14.8448 C.ar    1  UNL1        0.1468
     23 C          64.5897   83.7792   14.0075 C.ar    1  UNL1        0.0369
     24 C          64.9537   85.2308   13.9054 C.ar    1  UNL1        0.0005
     25 O          63.0551   81.9050   14.9470 O.3     1  UNL1       -0.4045
     26 C          62.7065   81.1303   13.7107 C.3     1  UNL1        0.5753
     27 F          62.3580   80.3556   12.4745 F       1  UNL1       -0.1328
     28 F          64.1405   80.7142   13.5672 F       1  UNL1       -0.1328
     29 F          61.2725   81.5464   13.8543 F       1  UNL1       -0.1328
@<TRIPOS>BOND
     1    14    15    1
     2    15     8    1
     3     8     9   ar
     4     9    10   ar
     5    10    11   ar
     6    11    12   ar
     7    12    16    1
     8    16    17    1
     9    12    13   ar
    10     1    13    1
    11     1     2    1
    12     2     3    1
    13     3     4    1
    14     3     5    1
    15     5     6    2
    16     5     7   am
    17     7    18    1
    18    18    19    1
    19    19    20   ar
    20    20    21   ar
    21    21    22   ar
    22    22    25    1
    23    25    26    1
    24    26    27    1
    25    26    28    1
    26    26    29    1
    27    22    23   ar
    28    23    24   ar
    29    13     8   ar
    30     7     1    1
    31    24    19   ar
@<TRIPOS>MOLECULE
*****
 29 31 0 0 0
SMALL
GASTEIGER

@<TRIPOS>ATOM
      1 C          65.2412   91.5523   13.2615 C.3     1  UNL1        0.1045
      2 C          64.9263   91.8780   11.8316 C.3     1  UNL1        0.0337
      3 C          63.6439   91.1886   11.4708 C.3     1  UNL1        0.0787
      4 C          62.9593   91.2416   10.1371 C.3     1  UNL1        0.0096
      5 C          63.1663   90.4368   12.6778 C.2     1  UNL1        0.2256
      6 O          61.9202   89.6060   12.7630 O.2     1  UNL1       -0.2749
      7 N          64.1535   90.6616   13.7845 N.am    1  UNL1       -0.2731
      8 C          66.2548   92.6287   15.3980 C.ar    1  UNL1        0.1392
      9 C          67.4480   93.1093   16.1695 C.ar    1  UNL1        0.0368
     10 C          68.8208   92.9942   15.5762 C.ar    1  UNL1        0.0062
     11 C          69.0005   92.3985   14.2113 C.ar    1  UNL1        0.0368
     12 C          67.8073   91.9178   13.4398 C.ar    1  UNL1        0.1392
     13 C          66.4344   92.0330   14.0331 C.ar    1  UNL1        0.0636
     14 C          64.6679   92.4566   17.4478 C.3     1  UNL1        0.2525
     15 O          64.8819   92.7438   15.9913 O.3     1  UNL1       -0.4716
     16 O          67.9869   91.3221   12.0749 O.3     1  UNL1       -0.4716
     17 C          68.2867   92.2091   10.9030 C.3     1  UNL1        0.2525
     18 C          64.0679   90.0951   15.1708 C.3     1  UNL1        0.1204
     19 C          63.9245   88.6152   15.3688 C.ar    1  UNL1       -0.0021
     20 C          63.2621   88.0847   16.6056 C.ar    1  UNL1        0.0005
     21 C          63.1187   86.6047   16.8035 C.ar    1  UNL1        0.0369
     22 C          63.6377   85.6553   15.7646 C.ar    1  UNL1        0.1468
     23 C          64.3001   86.1859   14.5278 C.ar    1  UNL1        0.0369
     24 C          64.4435   87.6658   14.3299 C.ar    1  UNL1        0.0005
     25 O          63.4943   84.1754   15.9627 O.3     1  UNL1       -0.4045
     26 C          62.8039   83.3429   14.9232 C.3     1  UNL1        0.5753
     27 F          62.1135   82.5105   13.8838 F       1  UNL1       -0.1328
     28 F          61.5631   84.1701   15.0849 F       1  UNL1       -0.1328
     29 F          64.0448   82.5157   14.7616 F       1  UNL1       -0.1328
@<TRIPOS>BOND
     1    14    15    1
     2    15     8    1
     3     8     9   ar
     4     9    10   ar
     5    10    11   ar
     6    11    12   ar
     7    12    16    1
     8    16    17    1
     9    12    13   ar
    10     1    13    1
    11     1     2    1
    12     2     3    1
    13     3     4    1
    14     3     5    1
    15     5     6    2
    16     5     7   am
    17     7    18    1
    18    18    19    1
    19    19    20   ar
    20    20    21   ar
    21    21    22   ar
    22    22    25    1
    23    25    26    1
    24    26    27    1
    25    26    28    1
    26    26    29    1
    27    22    23   ar
    28    23    24   ar
    29    13     8   ar
    30     7     1    1
    31    24    19   ar
@<TRIPOS>MOLECULE
*****
 29 31 0 0 0
SMALL
GASTEIGER

@<TRIPOS>ATOM
      1 C          62.3310   86.6644   11.6656 C.3     1  UNL1        0.1045
      2 C          62.6444   85.2936   12.1878 C.3     1  UNL1        0.0337
      3 C          63.5844   85.4430   13.3471 C.3     1  UNL1        0.0787
      4 C          64.1564   84.3254   14.1681 C.3     1  UNL1        0.0096
      5 C          63.8520   86.9061   13.5414 C.2     1  UNL1        0.2256
      6 O          64.7386   87.5085   14.5907 O.2     1  UNL1       -0.2749
      7 N          63.0774   87.6610   12.5022 N.am    1  UNL1       -0.2731
      8 C          61.7417   86.4447    9.1447 C.ar    1  UNL1        0.1392
      9 C          60.8402   86.7631    7.9889 C.ar    1  UNL1        0.0368
     10 C          59.6267   87.6196    8.1980 C.ar    1  UNL1        0.0062
     11 C          59.3146   88.1577    9.5629 C.ar    1  UNL1        0.0368
     12 C          60.2160   87.8393   10.7187 C.ar    1  UNL1        0.1392
     13 C          61.4296   86.9828   10.5096 C.ar    1  UNL1        0.0636
     14 C          63.0702   84.7379    7.7053 C.3     1  UNL1        0.2525
     15 O          62.9552   85.5882    8.9357 O.3     1  UNL1       -0.4716
     16 O          59.9039   88.3774   12.0837 O.3     1  UNL1       -0.4716
     17 C          59.3521   89.7640   12.2351 C.3     1  UNL1        0.2525
     18 C          63.0533   89.1508   12.3297 C.3     1  UNL1        0.1204
     19 C          63.8089   90.0285   13.2830 C.ar    1  UNL1       -0.0021
     20 C          63.3834   90.1174   14.7186 C.ar    1  UNL1        0.0005
     21 C          64.1390   90.9951   15.6719 C.ar    1  UNL1        0.0369
     22 C          65.3201   91.7839   15.1895 C.ar    1  UNL1        0.1468
     23 C          65.7457   91.6950   13.7538 C.ar    1  UNL1        0.0369
     24 C          64.9900   90.8173   12.8006 C.ar    1  UNL1        0.0005
     25 O          66.0757   92.6616   16.1428 O.3     1  UNL1       -0.4045
     26 C          67.4862   93.0667   15.8322 C.3     1  UNL1        0.5753
     27 F          68.8966   93.4718   15.5216 F       1  UNL1       -0.1328
     28 F          66.9762   94.1456   14.9234 F       1  UNL1       -0.1328
     29 F          67.9962   91.9877   16.7410 F       1  UNL1       -0.1328
@<TRIPOS>BOND
     1    14    15    1
     2    15     8    1
     3     8     9   ar
     4     9    10   ar
     5    10    11   ar
     6    11    12   ar
     7    12    16    1
     8    16    17    1
     9    12    13   ar
    10     1    13    1
    11     1     2    1
    12     2     3    1
    13     3     4    1
    14     3     5    1
    15     5     6    2
    16     5     7   am
    17     7    18    1
    18    18    19    1
    19    19    20   ar
    20    20    21   ar
    21    21    22   ar
    22    22    25    1
    23    25    26    1
    24    26    27    1
    25    26    28    1
    26    26    29    1
    27    22    23   ar
    28    23    24   ar
    29    13     8   ar
    30     7     1    1
    31    24    19   ar
@<TRIPOS>MOLECULE
*****
 29 31 0 0 0
SMALL
GASTEIGER

@<TRIPOS>ATOM
      1 C          62.3395   86.6365   11.6731 C.3     1  UNL1        0.1045
      2 C          62.6474   85.2692   12.2074 C.3     1  UNL1        0.0337
      3 C          63.5820   85.4255   13.3702 C.3     1  UNL1        0.0787
      4 C          64.1476   84.3131   14.2026 C.3     1  UNL1        0.0096
      5 C          63.8516   86.8896   13.5547 C.2     1  UNL1        0.2256
      6 O          64.7342   87.4982   14.6037 O.2     1  UNL1       -0.2749
      7 N          63.0837   87.6380   12.5058 N.am    1  UNL1       -0.2731
      8 C          60.2421   87.8238   10.7028 C.ar    1  UNL1        0.1392
      9 C          59.3471   88.1351    9.5401 C.ar    1  UNL1        0.0368
     10 C          59.6545   87.5705    8.1848 C.ar    1  UNL1        0.0062
     11 C          60.8568   86.6945    7.9923 C.ar    1  UNL1        0.0368
     12 C          61.7518   86.3832    9.1551 C.ar    1  UNL1        0.1392
     13 C          61.4444   86.9479   10.5103 C.ar    1  UNL1        0.0636
     14 C          59.3836   89.7778   12.1844 C.3     1  UNL1        0.2525
     15 O          59.9348   88.3885   12.0581 O.3     1  UNL1       -0.4716
     16 O          62.9542   85.5072    8.9626 O.3     1  UNL1       -0.4716
     17 C          63.1028   84.7033    7.7050 C.3     1  UNL1        0.2525
     18 C          63.0636   89.1265   12.3218 C.3     1  UNL1        0.1204
     19 C          63.8119   90.0103   13.2752 C.ar    1  UNL1       -0.0021
     20 C          63.3804   90.1022   14.7088 C.ar    1  UNL1        0.0005
     21 C          64.1287   90.9860   15.6621 C.ar    1  UNL1        0.0369
     22 C          65.3087   91.7778   15.1818 C.ar    1  UNL1        0.1468
     23 C          65.7403   91.6859   13.7482 C.ar    1  UNL1        0.0369
     24 C          64.9919   90.8021   12.7949 C.ar    1  UNL1        0.0005
     25 O          66.0570   92.6616   16.1353 O.3     1  UNL1       -0.4045
     26 C          67.4713   93.0612   15.8350 C.3     1  UNL1        0.5753
     27 F          68.8856   93.4607   15.5347 F       1  UNL1       -0.1328
     28 F          66.9725   94.1317   14.9102 F       1  UNL1       -0.1328
     29 F          67.9701   91.9906   16.7598 F       1  UNL1       -0.1328
@<TRIPOS>BOND
     1    14    15    1
     2    15     8    1
     3     8     9   ar
     4     9    10   ar
     5    10    11   ar
     6    11    12   ar
     7    12    16    1
     8    16    17    1
     9    12    13   ar
    10     1    13    1
    11     1     2    1
    12     2     3    1
    13     3     4    1
    14     3     5    1
    15     5     6    2
    16     5     7   am
    17     7    18    1
    18    18    19    1
    19    19    20   ar
    20    20    21   ar
    21    21    22   ar
    22    22    25    1
    23    25    26    1
    24    26    27    1
    25    26    28    1
    26    26    29    1
    27    22    23   ar
    28    23    24   ar
    29    13     8   ar
    30     7     1    1
    31    24    19   ar
@<TRIPOS>MOLECULE
*****
 29 31 0 0 0
SMALL
GASTEIGER

@<TRIPOS>ATOM
      1 C          63.9150   90.1582   13.6167 C.3     1  UNL1        0.1045
      2 C          65.1456   90.9704   13.3411 C.3     1  UNL1        0.0337
      3 C          64.9819   91.6188   11.9984 C.3     1  UNL1        0.0787
      4 C          65.9755   92.5204   11.3276 C.3     1  UNL1        0.0096
      5 C          63.6501   91.2072   11.4441 C.2     1  UNL1        0.2256
      6 O          63.0782   91.6250   10.1219 O.2     1  UNL1       -0.2749
      7 N          62.9908   90.3045   12.4444 N.am    1  UNL1       -0.2731
      8 C          63.6780   87.8447   14.7751 C.ar    1  UNL1        0.1392
      9 C          63.4174   87.0293   16.0068 C.ar    1  UNL1        0.0368
     10 C          63.1332   87.7119   17.3119 C.ar    1  UNL1        0.0062
     11 C          63.1097   89.2099   17.3853 C.ar    1  UNL1        0.0368
     12 C          63.3703   90.0253   16.1536 C.ar    1  UNL1        0.1392
     13 C          63.6544   89.3427   14.8485 C.ar    1  UNL1        0.0636
     14 C          63.8825   85.6674   13.3724 C.3     1  UNL1        0.2525
     15 O          63.9621   87.1621   13.4700 O.3     1  UNL1       -0.4716
     16 O          63.3468   91.5234   16.2269 O.3     1  UNL1       -0.4716
     17 C          64.5689   92.2718   16.6700 C.3     1  UNL1        0.2525
     18 C          61.6437   89.6612   12.2979 C.3     1  UNL1        0.1204
     19 C          61.3839   88.7147   11.1636 C.ar    1  UNL1       -0.0021
     20 C          61.7426   87.2646   11.2994 C.ar    1  UNL1        0.0005
     21 C          61.4827   86.3183   10.1650 C.ar    1  UNL1        0.0369
     22 C          60.8641   86.8221    8.8948 C.ar    1  UNL1        0.1468
     23 C          60.5053   88.2722    8.7590 C.ar    1  UNL1        0.0369
     24 C          60.7652   89.2185    9.8934 C.ar    1  UNL1        0.0005
     25 O          60.6042   85.8756    7.7604 O.3     1  UNL1       -0.4045
     26 C          61.7469   85.1572    7.1061 C.3     1  UNL1        0.5753
     27 F          62.8896   84.4389    6.4518 F       1  UNL1       -0.1328
     28 F          60.7794   84.4089    6.2379 F       1  UNL1       -0.1328
     29 F          62.7144   85.9056    7.9745 F       1  UNL1       -0.1328
@<TRIPOS>BOND
     1    14    15    1
     2    15     8    1
     3     8     9   ar
     4     9    10   ar
     5    10    11   ar
     6    11    12   ar
     7    12    16    1
     8    16    17    1
     9    12    13   ar
    10     1    13    1
    11     1     2    1
    12     2     3    1
    13     3     4    1
    14     3     5    1
    15     5     6    2
    16     5     7   am
    17     7    18    1
    18    18    19    1
    19    19    20   ar
    20    20    21   ar
    21    21    22   ar
    22    22    25    1
    23    25    26    1
    24    26    27    1
    25    26    28    1
    26    26    29    1
    27    22    23   ar
    28    23    24   ar
    29    13     8   ar
    30     7     1    1
    31    24    19   ar
@<TRIPOS>MOLECULE
*****
 29 31 0 0 0
SMALL
GASTEIGER

@<TRIPOS>ATOM
      1 C          63.9413   90.1955   13.5739 C.3     1  UNL1        0.1045
      2 C          65.1760   91.0003   13.2949 C.3     1  UNL1        0.0337
      3 C          65.0180   91.6392   11.9470 C.3     1  UNL1        0.0787
      4 C          66.0171   92.5314   11.2717 C.3     1  UNL1        0.0096
      5 C          63.6857   91.2294   11.3930 C.2     1  UNL1        0.2256
      6 O          63.1184   91.6398   10.0664 O.2     1  UNL1       -0.2749
      7 N          63.0202   90.3372   12.3985 N.am    1  UNL1       -0.2731
      8 C          63.3996   90.0841   16.1125 C.ar    1  UNL1        0.1392
      9 C          63.1327   89.2790   17.3497 C.ar    1  UNL1        0.0368
     10 C          63.1408   87.7804   17.2856 C.ar    1  UNL1        0.0062
     11 C          63.4156   87.0869   15.9843 C.ar    1  UNL1        0.0368
     12 C          63.6825   87.8919   14.7471 C.ar    1  UNL1        0.1392
     13 C          63.6744   89.3905   14.8112 C.ar    1  UNL1        0.0636
     14 C          64.6138   92.3202   16.6369 C.3     1  UNL1        0.2525
     15 O          63.3915   91.5827   16.1766 O.3     1  UNL1       -0.4716
     16 O          63.9574   87.1983   13.4458 O.3     1  UNL1       -0.4716
     17 C          63.8873   85.7022   13.3639 C.3     1  UNL1        0.2525
     18 C          61.6706   89.6986   12.2540 C.3     1  UNL1        0.1204
     19 C          61.4096   88.7435   11.1273 C.ar    1  UNL1       -0.0021
     20 C          60.7582   89.2303    9.8669 C.ar    1  UNL1        0.0005
     21 C          60.4972   88.2751    8.7403 C.ar    1  UNL1        0.0369
     22 C          60.8876   86.8329    8.8740 C.ar    1  UNL1        0.1468
     23 C          61.5390   86.3461   10.1344 C.ar    1  UNL1        0.0369
     24 C          61.8000   87.3013   11.2611 C.ar    1  UNL1        0.0005
     25 O          60.6265   85.8777    7.7473 O.3     1  UNL1       -0.4045
     26 C          61.7685   85.1541    7.0976 C.3     1  UNL1        0.5753
     27 F          62.9105   84.4304    6.4478 F       1  UNL1       -0.1328
     28 F          62.7384   85.9280    7.9403 F       1  UNL1       -0.1328
     29 F          60.7985   84.3801    6.2548 F       1  UNL1       -0.1328
@<TRIPOS>BOND
     1    14    15    1
     2    15     8    1
     3     8     9   ar
     4     9    10   ar
     5    10    11   ar
     6    11    12   ar
     7    12    16    1
     8    16    17    1
     9    12    13   ar
    10     1    13    1
    11     1     2    1
    12     2     3    1
    13     3     4    1
    14     3     5    1
    15     5     6    2
    16     5     7   am
    17     7    18    1
    18    18    19    1
    19    19    20   ar
    20    20    21   ar
    21    21    22   ar
    22    22    25    1
    23    25    26    1
    24    26    27    1
    25    26    28    1
    26    26    29    1
    27    22    23   ar
    28    23    24   ar
    29    13     8   ar
    30     7     1    1
    31    24    19   ar
@<TRIPOS>MOLECULE
*****
 29 31 0 0 0
SMALL
GASTEIGER

@<TRIPOS>ATOM
      1 C          62.4644   87.1328   11.7312 C.3     1  UNL1        0.1045
      2 C          63.0603   85.9109   12.3651 C.3     1  UNL1        0.0337
      3 C          63.9142   86.3551   13.5155 C.3     1  UNL1        0.0787
      4 C          64.6985   85.4599   14.4286 C.3     1  UNL1        0.0096
      5 C          63.8461   87.8516   13.5927 C.2     1  UNL1        0.2256
      6 O          64.5503   88.7156   14.5964 O.2     1  UNL1       -0.2749
      7 N          62.9500   88.3322   12.4900 N.am    1  UNL1       -0.2731
      8 C          60.2119   87.8341   10.6428 C.ar    1  UNL1        0.1392
      9 C          59.2920   87.8533    9.4582 C.ar    1  UNL1        0.0368
     10 C          59.7045   87.1905    8.1774 C.ar    1  UNL1        0.0062
     11 C          61.0369   86.5084    8.0812 C.ar    1  UNL1        0.0368
     12 C          61.9569   86.4892    9.2658 C.ar    1  UNL1        0.1392
     13 C          61.5444   87.1521   10.5466 C.ar    1  UNL1        0.0636
     14 C          59.1869   89.8660   11.8962 C.3     1  UNL1        0.2525
     15 O          59.7994   88.4970   11.9236 O.3     1  UNL1       -0.4716
     16 O          63.2894   85.8070    9.1697 O.3     1  UNL1       -0.4716
     17 C          63.3609   84.3126    9.0626 C.3     1  UNL1        0.2525
     18 C          62.6010   89.7614   12.1973 C.3     1  UNL1        0.1204
     19 C          63.6885   90.7832   12.0458 C.ar    1  UNL1       -0.0021
     20 C          64.5106   91.1855   13.2342 C.ar    1  UNL1        0.0005
     21 C          65.5982   92.2074   13.0825 C.ar    1  UNL1        0.0369
     22 C          65.8636   92.8269   11.7425 C.ar    1  UNL1        0.1468
     23 C          65.0415   92.4246   10.5541 C.ar    1  UNL1        0.0369
     24 C          63.9540   91.4028   10.7057 C.ar    1  UNL1        0.0005
     25 O          66.9512   93.8488   11.5910 O.3     1  UNL1       -0.4045
     26 C          66.8185   94.9398   10.5701 C.3     1  UNL1        0.5753
     27 F          66.6858   96.0307    9.5492 F       1  UNL1       -0.1328
     28 F          65.7802   95.6094   11.4207 F       1  UNL1       -0.1328
     29 F          67.8568   94.2701    9.7195 F       1  UNL1       -0.1328
@<TRIPOS>BOND
     1    14    15    1
     2    15     8    1
     3     8     9   ar
     4     9    10   ar
     5    10    11   ar
     6    11    12   ar
     7    12    16    1
     8    16    17    1
     9    12    13   ar
    10     1    13    1
    11     1     2    1
    12     2     3    1
    13     3     4    1
    14     3     5    1
    15     5     6    2
    16     5     7   am
    17     7    18    1
    18    18    19    1
    19    19    20   ar
    20    20    21   ar
    21    21    22   ar
    22    22    25    1
    23    25    26    1
    24    26    27    1
    25    26    28    1
    26    26    29    1
    27    22    23   ar
    28    23    24   ar
    29    13     8   ar
    30     7     1    1
    31    24    19   ar
@<TRIPOS>MOLECULE
*****
 29 31 0 0 0
SMALL
GASTEIGER

@<TRIPOS>ATOM
      1 C          62.5158   87.0786   11.8627 C.3     1  UNL1        0.1045
      2 C          63.1286   85.8744   12.5141 C.3     1  UNL1        0.0337
      3 C          63.9718   86.3466   13.6612 C.3     1  UNL1        0.0787
      4 C          64.7671   85.4757   14.5881 C.3     1  UNL1        0.0096
      5 C          63.8800   87.8427   13.7189 C.2     1  UNL1        0.2256
      6 O          64.5675   88.7306   14.7135 O.2     1  UNL1       -0.2749
      7 N          62.9802   88.2951   12.6073 N.am    1  UNL1       -0.2731
      8 C          62.0107   86.3632    9.4166 C.ar    1  UNL1        0.1392
      9 C          61.0943   86.3528    8.2291 C.ar    1  UNL1        0.0368
     10 C          59.7666   87.0473    8.3002 C.ar    1  UNL1        0.0062
     11 C          59.3554   87.7522    9.5588 C.ar    1  UNL1        0.0368
     12 C          60.2717   87.7626   10.7462 C.ar    1  UNL1        0.1392
     13 C          61.5994   87.0681   10.6751 C.ar    1  UNL1        0.0636
     14 C          63.3989   84.1716    9.2770 C.3     1  UNL1        0.2525
     15 O          63.3383   85.6688    9.3455 O.3     1  UNL1       -0.4716
     16 O          59.8605   88.4675   12.0048 O.3     1  UNL1       -0.4716
     17 C          59.1875   89.8059   11.9292 C.3     1  UNL1        0.2525
     18 C          62.6098   89.7147   12.2952 C.3     1  UNL1        0.1204
     19 C          63.6826   90.7286   12.0287 C.ar    1  UNL1       -0.0021
     20 C          64.5853   91.1751   13.1403 C.ar    1  UNL1        0.0005
     21 C          65.6582   92.1890   12.8738 C.ar    1  UNL1        0.0369
     22 C          65.8283   92.7563   11.4957 C.ar    1  UNL1        0.1468
     23 C          64.9255   92.3098   10.3841 C.ar    1  UNL1        0.0369
     24 C          63.8527   91.2959   10.6506 C.ar    1  UNL1        0.0005
     25 O          66.9012   93.7703   11.2293 O.3     1  UNL1       -0.4045
     26 C          67.3578   94.0275    9.8238 C.3     1  UNL1        0.5753
     27 F          67.8145   94.2847    8.4184 F       1  UNL1       -0.1328
     28 F          66.5548   95.2940    9.7947 F       1  UNL1       -0.1328
     29 F          68.1609   92.7608    9.8530 F       1  UNL1       -0.1328
@<TRIPOS>BOND
     1    14    15    1
     2    15     8    1
     3     8     9   ar
     4     9    10   ar
     5    10    11   ar
     6    11    12   ar
     7    12    16    1
     8    16    17    1
     9    12    13   ar
    10     1    13    1
    11     1     2    1
    12     2     3    1
    13     3     4    1
    14     3     5    1
    15     5     6    2
    16     5     7   am
    17     7    18    1
    18    18    19    1
    19    19    20   ar
    20    20    21   ar
    21    21    22   ar
    22    22    25    1
    23    25    26    1
    24    26    27    1
    25    26    28    1
    26    26    29    1
    27    22    23   ar
    28    23    24   ar
    29    13     8   ar
    30     7     1    1
    31    24    19   ar
