@<TRIPOS>MOLECULE
*****
 49 55 0 0 0
SMALL
GASTEIGER

@<TRIPOS>ATOM
      1 C          59.3755   89.0398    7.4928 C.3     1  UNL1        0.1543
      2 N          60.5140   89.6713    8.2378 N.am    1  UNL1       -0.2822
      3 C          60.5644   89.5957    9.7350 C.2     1  UNL1        0.3043
      4 O          59.4763   88.8886   10.4873 O.2     1  UNL1       -0.2526
      5 N          61.7030   90.2271   10.4799 N.am    1  UNL1       -0.2641
      6 C          61.7534   90.1515   11.9772 C.3     1  UNL1        0.0966
      7 C          62.8920   90.7830   12.7221 C.3     1  UNL1        0.0415
      8 C          63.9801   91.4900   11.9698 C.3     1  UNL1        0.0806
      9 C          63.9297   91.5656   10.4725 C.3     1  UNL1        0.0415
     10 C          62.7912   90.9342    9.7276 C.3     1  UNL1        0.0966
     11 H          61.2282   90.1353    7.7440 H       1  UNL1        0.1514
     12 N          65.1187   92.1215   12.7147 N.am    1  UNL1       -0.2613
     13 C          65.6617   91.4666   13.9501 C.3     1  UNL1        0.1228
     14 C          66.8003   92.0981   14.6950 C.ar    1  UNL1        0.0112
     15 C          67.3433   91.4432   15.9305 C.ar    1  UNL1       -0.0014
     16 C          68.4819   92.0746   16.6754 C.ar    1  UNL1       -0.0002
     17 C          69.0775   93.3610   16.1849 C.ar    1  UNL1        0.0013
     18 C          68.5345   94.0159   14.9495 C.ar    1  UNL1        0.0144
     19 C          67.3958   93.3844   14.2046 C.ar    1  UNL1        0.0492
     20 N          66.8528   94.0393   12.9692 N.am    1  UNL1       -0.2684
     21 C          65.7143   93.4079   12.2242 C.2     1  UNL1        0.3079
     22 O          65.1713   94.0628   10.9888 O.2     1  UNL1       -0.2522
     23 H          67.2437   94.8836   12.6472 H       1  UNL1        0.1564
     24 C          58.5317   89.8683    6.5700 C.2     1  UNL1        0.2439
     25 O          57.0376   89.8524    6.7028 O.2     1  UNL1       -0.2731
     26 N          59.1819   90.7126    5.5144 N.am    1  UNL1       -0.2781
     27 C          58.3381   91.5411    4.5916 C.3     1  UNL1        0.0948
     28 C          58.9883   92.3855    3.5360 C.3     1  UNL1        0.0375
     29 C          60.4824   92.4013    3.4033 C.3     1  UNL1        0.0609
     30 C          61.3262   91.5729    4.3261 C.3     1  UNL1        0.0375
     31 C          60.6759   90.7285    5.3817 C.3     1  UNL1        0.0948
     32 N          61.1327   93.2457    2.3477 N.3     1  UNL1       -0.2738
     33 C          62.4174   92.7985    1.7156 C.3     1  UNL1        0.0720
     34 C          63.0676   93.6429    0.6601 C.3     1  UNL1        0.0174
     35 C          62.4331   94.9344    0.2365 C.3     1  UNL1        0.0029
     36 C          61.1484   95.3816    0.8686 C.3     1  UNL1        0.0174
     37 C          60.4981   94.5372    1.9242 C.3     1  UNL1        0.0720
     38 C          59.0807   87.5798    7.6708 C.3     1  UNL1        0.0553
     39 C          61.9754   84.9041    7.2110 C.2     1  UNL1       -0.0167
     40 C          60.8646   85.8599    6.8902 C.2     1  UNL1       -0.0105
     41 C          60.1913   86.6241    7.9915 C.2     1  UNL1       -0.0208
     42 C          60.6287   86.4324    9.4135 C.2     1  UNL1       -0.0046
     43 C          61.7393   85.4766    9.7342 C.2     1  UNL1        0.0261
     44 C          62.3813   85.0827   11.0314 C.2     1  UNL1        0.1197
     45 N          63.4514   84.0751   10.7319 N.2     1  UNL1       -0.1508
     46 N          63.4708   83.8463    9.2496 N.2     1  UNL1       -0.1677
     47 C          62.4127   84.7125    8.6330 C.3     1  UNL1        0.1672
     48 C          62.0613   84.1391    4.7296 C.3     1  UNL1        0.0047
     49 C          62.6487   84.1400    6.1098 C.3     1  UNL1        0.0243
@<TRIPOS>BOND
     1    48    49    1
     2    49    39    1
     3    39    40    2
     4    40    41    1
     5    41    38    1
     6    38     1    1
     7     1     2    1
     8     2     3   am
     9     3     4    2
    10     3     5   am
    11     5     6    1
    12     6     7    1
    13     7     8    1
    14     8    12    1
    15    12    13    1
    16    13    14    1
    17    14    15   ar
    18    15    16   ar
    19    16    17   ar
    20    17    18   ar
    21    18    19   ar
    22    19    20    1
    23    20    21   am
    24    21    22    2
    25     8     9    1
    26     9    10    1
    27     1    24    1
    28    24    25    2
    29    24    26   am
    30    26    27    1
    31    27    28    1
    32    28    29    1
    33    29    32    1
    34    32    33    1
    35    33    34    1
    36    34    35    1
    37    35    36    1
    38    36    37    1
    39    29    30    1
    40    30    31    1
    41    41    42    2
    42    42    43    1
    43    43    44    2
    44    44    45    1
    45    45    46    2
    46    46    47    1
    47    47    39    1
    48    10     5    1
    49    31    26    1
    50    47    43    1
    51    21    12   am
    52    37    32    1
    53    19    14   ar
    54     2    11    1
    55    20    23    1
@<TRIPOS>MOLECULE
*****
 49 55 0 0 0
SMALL
GASTEIGER

@<TRIPOS>ATOM
      1 C          60.6175   88.1081    8.8846 C.3     1  UNL1        0.1543
      2 N          60.7163   89.0288    7.7046 N.am    1  UNL1       -0.2822
      3 C          59.4715   89.4849    7.0028 C.2     1  UNL1        0.3043
      4 O          58.1279   89.0202    7.4810 O.2     1  UNL1       -0.2526
      5 N          59.5704   90.4056    5.8227 N.am    1  UNL1       -0.2641
      6 C          58.3256   90.8616    5.1209 C.3     1  UNL1        0.0966
      7 C          58.4245   91.7823    3.9408 C.3     1  UNL1        0.0415
      8 C          59.7681   92.2470    3.4627 C.3     1  UNL1        0.0806
      9 C          61.0129   91.7910    4.1645 C.3     1  UNL1        0.0415
     10 C          60.9140   90.8703    5.3445 C.3     1  UNL1        0.0966
     11 H          61.5982   89.3338    7.3907 H       1  UNL1        0.1514
     12 N          59.8669   93.1677    2.2826 N.am    1  UNL1       -0.2613
     13 C          59.8909   92.6052    0.8923 C.3     1  UNL1        0.1228
     14 C          59.9898   93.5260   -0.2877 C.ar    1  UNL1        0.0112
     15 C          60.0138   92.9634   -1.6780 C.ar    1  UNL1       -0.0014
     16 C          60.1127   93.8841   -2.8580 C.ar    1  UNL1       -0.0002
     17 C          60.1875   95.3675   -2.6478 C.ar    1  UNL1        0.0013
     18 C          60.1634   95.9300   -1.2575 C.ar    1  UNL1        0.0144
     19 C          60.0646   95.0092   -0.0774 C.ar    1  UNL1        0.0492
     20 N          60.0406   95.5718    1.3129 N.am    1  UNL1       -0.2684
     21 C          59.9417   94.6511    2.4929 C.2     1  UNL1        0.3079
     22 O          59.9177   95.2136    3.8832 O.2     1  UNL1       -0.2522
     23 H          60.0897   96.5453    1.4509 H       1  UNL1        0.1564
     24 C          60.4080   88.6706   10.2593 C.2     1  UNL1        0.2439
     25 O          59.1139   88.4304   10.9788 O.2     1  UNL1       -0.2731
     26 N          61.4927   89.4732   10.9145 N.am    1  UNL1       -0.2781
     27 C          61.2832   90.0357   12.2892 C.3     1  UNL1        0.0948
     28 C          62.3678   90.8383   12.9444 C.3     1  UNL1        0.0375
     29 C          63.6620   91.0785   12.2249 C.3     1  UNL1        0.0609
     30 C          63.8714   90.5161   10.8502 C.3     1  UNL1        0.0375
     31 C          62.7867   89.7134   10.1950 C.3     1  UNL1        0.0948
     32 N          64.7466   91.8812   12.8801 N.3     1  UNL1       -0.2738
     33 C          65.4434   92.9664   12.1141 C.3     1  UNL1        0.0720
     34 C          66.5280   93.7691   12.7693 C.3     1  UNL1        0.0174
     35 C          66.9159   93.4865   14.1906 C.3     1  UNL1        0.0029
     36 C          66.2190   92.4012   14.9565 C.3     1  UNL1        0.0174
     37 C          65.1344   91.5986   14.3012 C.3     1  UNL1        0.0720
     38 C          60.7281   86.6249    8.6900 C.3     1  UNL1        0.0553
     39 C          62.5249   85.2809   11.9634 C.2     1  UNL1       -0.0167
     40 C          61.6398   86.0916   11.0636 C.2     1  UNL1       -0.0105
     41 C          61.6131   85.8143    9.5897 C.2     1  UNL1       -0.0208
     42 C          62.4716   84.7264    9.0156 C.2     1  UNL1       -0.0046
     43 C          63.3567   83.9158    9.9153 C.2     1  UNL1        0.0261
     44 C          64.3058   82.7877    9.6387 C.2     1  UNL1        0.1197
     45 N          64.9191   82.3678   10.9415 N.2     1  UNL1       -0.1508
     46 N          64.3489   83.2364   12.0234 N.2     1  UNL1       -0.1677
     47 C          63.3833   84.1931   11.3892 C.3     1  UNL1        0.1672
     48 C          63.8351   85.9594   14.1019 C.3     1  UNL1        0.0047
     49 C          62.5516   85.5582   13.4373 C.3     1  UNL1        0.0243
@<TRIPOS>BOND
     1    48    49    1
     2    49    39    1
     3    39    40    2
     4    40    41    1
     5    41    38    1
     6    38     1    1
     7     1     2    1
     8     2     3   am
     9     3     4    2
    10     3     5   am
    11     5     6    1
    12     6     7    1
    13     7     8    1
    14     8    12    1
    15    12    13    1
    16    13    14    1
    17    14    15   ar
    18    15    16   ar
    19    16    17   ar
    20    17    18   ar
    21    18    19   ar
    22    19    20    1
    23    20    21   am
    24    21    22    2
    25     8     9    1
    26     9    10    1
    27     1    24    1
    28    24    25    2
    29    24    26   am
    30    26    27    1
    31    27    28    1
    32    28    29    1
    33    29    32    1
    34    32    33    1
    35    33    34    1
    36    34    35    1
    37    35    36    1
    38    36    37    1
    39    29    30    1
    40    30    31    1
    41    41    42    2
    42    42    43    1
    43    43    44    2
    44    44    45    1
    45    45    46    2
    46    46    47    1
    47    47    39    1
    48    10     5    1
    49    31    26    1
    50    47    43    1
    51    21    12   am
    52    37    32    1
    53    19    14   ar
    54     2    11    1
    55    20    23    1
@<TRIPOS>MOLECULE
*****
 49 55 0 0 0
SMALL
GASTEIGER

@<TRIPOS>ATOM
      1 C          60.8252   87.9879    9.0424 C.3     1  UNL1        0.1543
      2 N          60.8662   88.9015    7.8535 N.am    1  UNL1       -0.2822
      3 C          59.5890   89.3450    7.2039 C.2     1  UNL1        0.3043
      4 O          58.2706   88.8749    7.7434 O.2     1  UNL1       -0.2526
      5 N          59.6300   90.2586    6.0150 N.am    1  UNL1       -0.2641
      6 C          58.3527   90.7021    5.3655 C.3     1  UNL1        0.0966
      7 C          58.3938   91.6157    4.1765 C.3     1  UNL1        0.0415
      8 C          59.7122   92.0858    3.6371 C.3     1  UNL1        0.0806
      9 C          60.9894   91.6423    4.2866 C.3     1  UNL1        0.0415
     10 C          60.9484   90.7287    5.4755 C.3     1  UNL1        0.0966
     11 H          61.7315   89.2100    7.4994 H       1  UNL1        0.1514
     12 N          59.7532   92.9994    2.4481 N.am    1  UNL1       -0.2613
     13 C          59.7505   92.4267    1.0618 C.3     1  UNL1        0.1228
     14 C          59.7915   93.3404   -0.1272 C.ar    1  UNL1        0.0112
     15 C          59.7888   92.7677   -1.5136 C.ar    1  UNL1       -0.0014
     16 C          59.8299   93.6813   -2.7025 C.ar    1  UNL1       -0.0002
     17 C          59.8737   95.1677   -2.5051 C.ar    1  UNL1        0.0013
     18 C          59.8764   95.7403   -1.1188 C.ar    1  UNL1        0.0144
     19 C          59.8353   94.8267    0.0702 C.ar    1  UNL1        0.0492
     20 N          59.8380   95.3994    1.4566 N.am    1  UNL1       -0.2684
     21 C          59.7970   94.4858    2.6455 C.2     1  UNL1        0.3079
     22 O          59.7997   95.0585    4.0319 O.2     1  UNL1       -0.2522
     23 H          59.8668   96.3749    1.5861 H       1  UNL1        0.1564
     24 C          60.5801   88.5494   10.4116 C.2     1  UNL1        0.2439
     25 O          59.2863   88.2686   11.1168 O.2     1  UNL1       -0.2731
     26 N          61.6288   89.3916   11.0756 N.am    1  UNL1       -0.2781
     27 C          61.3837   89.9531   12.4448 C.3     1  UNL1        0.0948
     28 C          62.4324   90.7953   13.1087 C.3     1  UNL1        0.0375
     29 C          63.7262   91.0761   12.4035 C.3     1  UNL1        0.0609
     30 C          63.9712   90.5147   11.0343 C.3     1  UNL1        0.0375
     31 C          62.9225   89.6724   10.3703 C.3     1  UNL1        0.0948
     32 N          64.7748   91.9184   13.0675 N.3     1  UNL1       -0.2738
     33 C          65.4585   93.0095   12.2980 C.3     1  UNL1        0.0720
     34 C          66.5071   93.8518   12.9620 C.3     1  UNL1        0.0174
     35 C          66.8722   93.6029   14.3955 C.3     1  UNL1        0.0029
     36 C          66.1886   92.5117   15.1650 C.3     1  UNL1        0.0174
     37 C          65.1399   91.6695   14.5009 C.3     1  UNL1        0.0720
     38 C          61.0292   86.5128    8.8622 C.3     1  UNL1        0.0553
     39 C          63.4028   83.7135   10.3723 C.2     1  UNL1       -0.0167
     40 C          62.5497   84.4766    9.4028 C.2     1  UNL1       -0.0105
     41 C          61.8822   85.7496    9.8317 C.2     1  UNL1       -0.0208
     42 C          62.0679   86.2595   11.2301 C.2     1  UNL1       -0.0046
     43 C          62.9209   85.4964   12.1996 C.2     1  UNL1        0.0261
     44 C          63.2850   85.7507   13.6324 C.2     1  UNL1        0.1197
     45 N          64.1774   84.6349   14.0890 N.2     1  UNL1       -0.1508
     46 N          64.3649   83.6910   12.9384 N.2     1  UNL1       -0.1677
     47 C          63.5884   84.2234   11.7707 C.3     1  UNL1        0.1672
     48 C          63.4998   81.1173   10.3600 C.3     1  UNL1        0.0047
     49 C          64.0702   82.4405    9.9434 C.3     1  UNL1        0.0243
@<TRIPOS>BOND
     1    48    49    1
     2    49    39    1
     3    39    40    2
     4    40    41    1
     5    41    38    1
     6    38     1    1
     7     1     2    1
     8     2     3   am
     9     3     4    2
    10     3     5   am
    11     5     6    1
    12     6     7    1
    13     7     8    1
    14     8    12    1
    15    12    13    1
    16    13    14    1
    17    14    15   ar
    18    15    16   ar
    19    16    17   ar
    20    17    18   ar
    21    18    19   ar
    22    19    20    1
    23    20    21   am
    24    21    22    2
    25     8     9    1
    26     9    10    1
    27     1    24    1
    28    24    25    2
    29    24    26   am
    30    26    27    1
    31    27    28    1
    32    28    29    1
    33    29    32    1
    34    32    33    1
    35    33    34    1
    36    34    35    1
    37    35    36    1
    38    36    37    1
    39    29    30    1
    40    30    31    1
    41    41    42    2
    42    42    43    1
    43    43    44    2
    44    44    45    1
    45    45    46    2
    46    46    47    1
    47    47    39    1
    48    10     5    1
    49    31    26    1
    50    47    43    1
    51    21    12   am
    52    37    32    1
    53    19    14   ar
    54     2    11    1
    55    20    23    1
@<TRIPOS>MOLECULE
*****
 49 55 0 0 0
SMALL
GASTEIGER

@<TRIPOS>ATOM
      1 C          59.9641   89.0089    8.5794 C.3     1  UNL1        0.1543
      2 N          60.3320   89.8077    7.3642 N.am    1  UNL1       -0.2822
      3 C          59.2592   90.3124    6.4454 C.2     1  UNL1        0.3043
      4 O          57.8185   90.0184    6.7416 O.2     1  UNL1       -0.2526
      5 N          59.6272   91.1111    5.2302 N.am    1  UNL1       -0.2641
      6 C          58.5544   91.6159    4.3113 C.3     1  UNL1        0.0966
      7 C          58.9224   92.4146    3.0961 C.3     1  UNL1        0.0415
      8 C          60.3631   92.7086    2.7999 C.3     1  UNL1        0.0806
      9 C          61.4359   92.2039    3.7188 C.3     1  UNL1        0.0415
     10 C          61.0680   91.4052    4.9339 C.3     1  UNL1        0.0966
     11 H          61.2777   90.0006    7.1698 H       1  UNL1        0.1514
     12 N          60.7310   93.5074    1.5848 N.am    1  UNL1       -0.2613
     13 C          61.3090   92.8210    0.3827 C.3     1  UNL1        0.1228
     14 C          61.6769   93.6198   -0.8324 C.ar    1  UNL1        0.0112
     15 C          62.2549   92.9334   -2.0344 C.ar    1  UNL1       -0.0014
     16 C          62.6228   93.7321   -3.2496 C.ar    1  UNL1       -0.0002
     17 C          62.4128   95.2173   -3.2628 C.ar    1  UNL1        0.0013
     18 C          61.8348   95.9037   -2.0607 C.ar    1  UNL1        0.0144
     19 C          61.4669   95.1049   -0.8456 C.ar    1  UNL1        0.0492
     20 N          60.8889   95.7913    0.3564 N.am    1  UNL1       -0.2684
     21 C          60.5210   94.9926    1.5716 C.2     1  UNL1        0.3079
     22 O          59.9431   95.6790    2.7736 O.2     1  UNL1       -0.2522
     23 H          60.7511   96.7661    0.3478 H       1  UNL1        0.1564
     24 C          59.9183   89.6693    9.9254 C.2     1  UNL1        0.2439
     25 O          58.6015   89.8851   10.6106 O.2     1  UNL1       -0.2731
     26 N          61.1894   90.1139   10.5863 N.am    1  UNL1       -0.2781
     27 C          61.1436   90.7743   11.9323 C.3     1  UNL1        0.0948
     28 C          62.4146   91.2189   12.5932 C.3     1  UNL1        0.0375
     29 C          63.7315   91.0031   11.9081 C.3     1  UNL1        0.0609
     30 C          63.7772   90.3427   10.5620 C.3     1  UNL1        0.0375
     31 C          62.5061   89.8981    9.9011 C.3     1  UNL1        0.0948
     32 N          65.0025   91.4477   12.5689 N.3     1  UNL1       -0.2738
     33 C          65.9539   92.3469   11.8366 C.3     1  UNL1        0.0720
     34 C          67.2249   92.7915   12.4975 C.3     1  UNL1        0.0174
     35 C          67.5446   92.3369   13.8908 C.3     1  UNL1        0.0029
     36 C          66.5932   91.4377   14.6232 C.3     1  UNL1        0.0174
     37 C          65.3221   90.9931   13.9622 C.3     1  UNL1        0.0720
     38 C          59.6419   87.5497    8.4485 C.3     1  UNL1        0.0553
     39 C          62.4083   84.8255    7.6265 C.2     1  UNL1       -0.0167
     40 C          61.3298   85.8513    7.4404 C.2     1  UNL1       -0.0105
     41 C          60.7204   86.5239    8.6346 C.2     1  UNL1       -0.0208
     42 C          61.1894   86.1707   10.0149 C.2     1  UNL1       -0.0046
     43 C          62.2678   85.1449   10.2010 C.2     1  UNL1        0.0261
     44 C          62.9292   84.5955   11.4301 C.2     1  UNL1        0.1197
     45 N          63.9474   83.5834   10.9956 N.2     1  UNL1       -0.1508
     46 N          63.9153   83.5072    9.4979 N.2     1  UNL1       -0.1677
     47 C          62.8773   84.4723    9.0068 C.3     1  UNL1        0.1672
     48 C          62.2978   84.1641    5.1164 C.3     1  UNL1        0.0047
     49 C          63.0178   84.1529    6.4323 C.3     1  UNL1        0.0243
@<TRIPOS>BOND
     1    48    49    1
     2    49    39    1
     3    39    40    2
     4    40    41    1
     5    41    38    1
     6    38     1    1
     7     1     2    1
     8     2     3   am
     9     3     4    2
    10     3     5   am
    11     5     6    1
    12     6     7    1
    13     7     8    1
    14     8    12    1
    15    12    13    1
    16    13    14    1
    17    14    15   ar
    18    15    16   ar
    19    16    17   ar
    20    17    18   ar
    21    18    19   ar
    22    19    20    1
    23    20    21   am
    24    21    22    2
    25     8     9    1
    26     9    10    1
    27     1    24    1
    28    24    25    2
    29    24    26   am
    30    26    27    1
    31    27    28    1
    32    28    29    1
    33    29    32    1
    34    32    33    1
    35    33    34    1
    36    34    35    1
    37    35    36    1
    38    36    37    1
    39    29    30    1
    40    30    31    1
    41    41    42    2
    42    42    43    1
    43    43    44    2
    44    44    45    1
    45    45    46    2
    46    46    47    1
    47    47    39    1
    48    10     5    1
    49    31    26    1
    50    47    43    1
    51    21    12   am
    52    37    32    1
    53    19    14   ar
    54     2    11    1
    55    20    23    1
