@<TRIPOS>MOLECULE
*****
 38 43 0 0 0
SMALL
GASTEIGER

@<TRIPOS>ATOM
      1 C          63.4021   88.3394   13.1112 C.3     1  UNL1        0.1455
      2 C          64.2339   87.9826   14.3074 C.3     1  UNL1        0.1634
      3 O          64.4970   86.5428   14.6355 O.3     1  UNL1       -0.3507
      4 C          63.9283   85.4598   13.7674 C.3     1  UNL1        0.1598
      5 C          63.0965   85.8165   12.5712 C.3     1  UNL1        0.1093
      6 N          62.8334   87.2564   12.2431 N.3     1  UNL1       -0.1499
      7 C          63.1390   89.7792   12.7831 C.3     1  UNL1        0.1550
      8 C          61.6450   89.8073   12.9133 C.3     1  UNL1        0.0453
      9 C          62.3888   91.0551   12.5398 C.3     1  UNL1        0.0453
     10 O          64.5418   90.2513   12.5390 O.3     1  UNL1       -0.4403
     11 O          64.9805   91.7205   14.6363 O.2     1  UNL1       -0.2262
     12 C          65.0171   91.5370   13.1481 C.2     1  UNL1        0.4048
     13 N          65.5290   92.6392   12.2688 N.am    1  UNL1       -0.2433
     14 C          65.5656   92.4557   10.7805 C.3     1  UNL1        0.1126
     15 C          66.0775   93.5580    9.9012 C.3     1  UNL1        0.0776
     16 C          66.6426   94.8684    9.4393 C.3     1  UNL1        0.0191
     17 C          66.8959   95.7166   10.6501 C.3     1  UNL1        0.0191
     18 C          66.4874   94.9305   11.8606 C.3     1  UNL1        0.0776
     19 C          66.0043   93.9249   12.8778 C.3     1  UNL1        0.1126
     20 N          65.9815   93.5963   11.3977 N.3     1  UNL1       -0.2699
     21 C          65.4696   92.4942   12.2769 C.3     1  UNL1        0.1043
     22 C          66.2991   92.0060   13.4274 C.3     1  UNL1        0.1544
     23 O          67.7473   91.6509   13.5914 O.3     1  UNL1       -0.3805
     24 H          67.9121   90.7776   13.2027 H       1  UNL1        0.2105
     25 S          62.0017   87.6131   11.0469 S.O2    1  UNL1        0.0635
     26 O          62.8928   88.1210   10.1692 O.2     1  UNL1       -0.1528
     27 O          60.7739   87.1204   11.7537 O.2     1  UNL1       -0.1528
     28 C          61.1700   87.9698    9.8506 C.ar    1  UNL1        0.1223
     29 C          60.5632   86.8865    9.0092 C.ar    1  UNL1        0.0208
     30 C          59.7315   87.2432    7.8129 C.ar    1  UNL1        0.0128
     31 C          59.5067   88.6832    7.4582 C.ar    1  UNL1        0.0578
     32 CL         58.6749   89.0399    6.2619 Cl      1  UNL1       -0.0822
     33 C          60.1135   89.7665    8.2996 C.ar    1  UNL1        0.0128
     34 C          60.9452   89.4099    9.4959 C.ar    1  UNL1        0.0208
     35 C          62.5279   84.7334   11.7032 C.3     1  UNL1        0.0203
     36 C          63.4215   83.6534   11.1694 C.3     1  UNL1        0.0015
     37 C          64.2348   83.0759   10.0491 C.3     1  UNL1        0.0000
     38 C          64.1558   82.3602   11.3650 C.3     1  UNL1        0.0000
@<TRIPOS>BOND
     1    11    12    2
     2    12    10    1
     3    10     7    1
     4     1     7    1
     5     1     2    1
     6     2     3    1
     7     3     4    1
     8     4     5    1
     9     5    35    1
    10    35    36    1
    11    36    37    1
    12    37    38    1
    13     5     6    1
    14     6    25    1
    15    25    26    2
    16    25    27    2
    17    25    28    1
    18    28    29   ar
    19    29    30   ar
    20    30    31   ar
    21    31    32    1
    22    31    33   ar
    23    33    34   ar
    24     7     8    1
    25     8     9    1
    26    12    13   am
    27    13    14    1
    28    14    15    1
    29    15    16    1
    30    16    17    1
    31    17    18    1
    32    18    19    1
    33    18    20    1
    34    20    21    1
    35    21    22    1
    36    22    23    1
    37     9     7    1
    38    19    13    1
    39     6     1    1
    40    34    28   ar
    41    20    15    1
    42    38    36    1
    43    23    24    1
@<TRIPOS>MOLECULE
*****
 38 43 0 0 0
SMALL
GASTEIGER

@<TRIPOS>ATOM
      1 C          62.6392   90.4255   11.5121 C.3     1  UNL1        0.1455
      2 C          62.7819   91.2676   10.2790 C.3     1  UNL1        0.1634
      3 O          63.9931   92.1339   10.0984 O.3     1  UNL1       -0.3507
      4 C          65.0615   92.1581   11.1509 C.3     1  UNL1        0.1598
      5 C          64.9188   91.3160   12.3840 C.3     1  UNL1        0.1093
      6 N          63.7077   90.4497   12.5646 N.3     1  UNL1       -0.1499
      7 C          61.4280   89.5592   11.6927 C.3     1  UNL1        0.1550
      8 C          60.3485   90.5951   11.5852 C.3     1  UNL1        0.0453
      9 C          59.9880   89.1572   11.8141 C.3     1  UNL1        0.0453
     10 O          62.0869   88.2224   11.8629 O.3     1  UNL1       -0.4403
     11 O          62.2724   87.9398    9.2869 O.2     1  UNL1       -0.2262
     12 C          62.3435   87.3550   10.6663 C.2     1  UNL1        0.4048
     13 N          62.6713   85.9028   10.8492 N.am    1  UNL1       -0.2433
     14 C          62.7425   85.3179   12.2287 C.3     1  UNL1        0.1126
     15 C          63.0703   83.8656   12.4117 C.3     1  UNL1        0.0776
     16 C          63.4152   82.4340   12.1260 C.3     1  UNL1        0.0191
     17 C          63.5223   82.2709   10.6388 C.3     1  UNL1        0.0191
     18 C          63.2436   83.6016   10.0052 C.3     1  UNL1        0.0776
     19 C          62.9280   85.0353    9.6528 C.3     1  UNL1        0.1126
     20 N          62.9643   84.5873   11.1009 N.3     1  UNL1       -0.2699
     21 C          62.6365   86.0395   10.9180 C.3     1  UNL1        0.1043
     22 C          61.5765   86.4517    9.9400 C.3     1  UNL1        0.1544
     23 O          60.0803   86.5405   10.0006 O.3     1  UNL1       -0.3805
     24 H          59.7001   85.6518    9.9198 H       1  UNL1        0.2105
     25 S          63.5650   89.6076   13.7977 S.O2    1  UNL1        0.0635
     26 O          64.1420   88.4346   13.4606 O.2     1  UNL1       -0.1528
     27 O          62.8688   90.7409   14.4910 O.2     1  UNL1       -0.1528
     28 C          63.4224   88.7654   15.0307 C.ar    1  UNL1        0.1223
     29 C          62.9862   89.3932   16.3212 C.ar    1  UNL1        0.0208
     30 C          62.8436   88.5511   17.5544 C.ar    1  UNL1        0.0128
     31 C          63.1372   87.0813   17.4968 C.ar    1  UNL1        0.0578
     32 CL         62.9945   86.2392   18.7300 Cl      1  UNL1       -0.0822
     33 C          63.5734   86.4535   16.2063 C.ar    1  UNL1        0.0128
     34 C          63.7160   87.2956   14.9732 C.ar    1  UNL1        0.0208
     35 C          65.9873   91.3402   13.4364 C.3     1  UNL1        0.0203
     36 C          66.4940   92.6510   13.9609 C.3     1  UNL1        0.0015
     37 C          66.5968   94.1431   13.8474 C.3     1  UNL1        0.0000
     38 C          67.2685   93.4292   14.9828 C.3     1  UNL1        0.0000
@<TRIPOS>BOND
     1    11    12    2
     2    12    10    1
     3    10     7    1
     4     1     7    1
     5     1     2    1
     6     2     3    1
     7     3     4    1
     8     4     5    1
     9     5    35    1
    10    35    36    1
    11    36    37    1
    12    37    38    1
    13     5     6    1
    14     6    25    1
    15    25    26    2
    16    25    27    2
    17    25    28    1
    18    28    29   ar
    19    29    30   ar
    20    30    31   ar
    21    31    32    1
    22    31    33   ar
    23    33    34   ar
    24     7     8    1
    25     8     9    1
    26    12    13   am
    27    13    14    1
    28    14    15    1
    29    15    16    1
    30    16    17    1
    31    17    18    1
    32    18    19    1
    33    18    20    1
    34    20    21    1
    35    21    22    1
    36    22    23    1
    37     9     7    1
    38    19    13    1
    39     6     1    1
    40    34    28   ar
    41    20    15    1
    42    38    36    1
    43    23    24    1
@<TRIPOS>MOLECULE
*****
 38 43 0 0 0
SMALL
GASTEIGER

@<TRIPOS>ATOM
      1 C          63.3965   88.4768   12.9760 C.3     1  UNL1        0.1455
      2 C          64.2564   88.1482   14.1604 C.3     1  UNL1        0.1634
      3 O          64.5232   86.7165   14.5193 O.3     1  UNL1       -0.3507
      4 C          63.9303   85.6133   13.6939 C.3     1  UNL1        0.1598
      5 C          63.0704   85.9418   12.5095 C.3     1  UNL1        0.1093
      6 N          62.8036   87.3736   12.1506 N.3     1  UNL1       -0.1499
      7 C          63.1297   89.9085   12.6170 C.3     1  UNL1        0.1550
      8 C          61.7015   90.0263   13.0599 C.3     1  UNL1        0.0453
      9 C          62.3990   91.2085   12.4552 C.3     1  UNL1        0.0453
     10 O          64.4653   90.2881   12.0494 O.3     1  UNL1       -0.4403
     11 O          64.4888   92.7118   11.1139 O.2     1  UNL1       -0.2262
     12 C          64.9398   91.7086   12.1337 C.2     1  UNL1        0.4048
     13 N          65.8653   92.1258   13.2379 N.am    1  UNL1       -0.2433
     14 C          66.3164   91.1225   14.2578 C.3     1  UNL1        0.1126
     15 C          67.2420   91.5398   15.3620 C.3     1  UNL1        0.0776
     16 C          68.1265   92.3690   16.2453 C.3     1  UNL1        0.0191
     17 C          68.1400   93.7683   15.7052 C.3     1  UNL1        0.0191
     18 C          67.2639   93.8040   14.4881 C.3     1  UNL1        0.0776
     19 C          66.3399   93.5462   13.3223 C.3     1  UNL1        0.1126
     20 N          66.7089   92.4266   14.2760 N.3     1  UNL1       -0.2699
     21 C          65.7834   92.0094   13.1718 C.3     1  UNL1        0.1043
     22 C          66.0556   92.4416   11.7615 C.3     1  UNL1        0.1544
     23 O          67.2213   92.2857   10.8304 O.3     1  UNL1       -0.3805
     24 H          67.9174   92.9152   11.0755 H       1  UNL1        0.2105
     25 S          61.9437   87.7021   10.9662 S.O2    1  UNL1        0.0635
     26 O          62.8225   88.1204   10.0306 O.2     1  UNL1       -0.1528
     27 O          60.7231   87.3050   11.7422 O.2     1  UNL1       -0.1528
     28 C          61.0840   88.0307    9.7817 C.ar    1  UNL1        0.1223
     29 C          60.8714   89.4610    9.3832 C.ar    1  UNL1        0.0208
     30 C          60.0116   89.7896    8.1987 C.ar    1  UNL1        0.0128
     31 C          59.3645   88.6879    7.4130 C.ar    1  UNL1        0.0578
     32 CL         58.5048   89.0165    6.2285 Cl      1  UNL1       -0.0822
     33 C          59.5771   87.2576    7.8115 C.ar    1  UNL1        0.0128
     34 C          60.4369   86.9289    8.9960 C.ar    1  UNL1        0.0208
     35 C          62.4775   84.8386   11.6841 C.3     1  UNL1        0.0203
     36 C          63.3622   83.7697   11.1142 C.3     1  UNL1        0.0015
     37 C          64.1774   82.5240   11.2972 C.3     1  UNL1        0.0000
     38 C          64.0792   83.1641    9.9442 C.3     1  UNL1        0.0000
@<TRIPOS>BOND
     1    11    12    2
     2    12    10    1
     3    10     7    1
     4     1     7    1
     5     1     2    1
     6     2     3    1
     7     3     4    1
     8     4     5    1
     9     5    35    1
    10    35    36    1
    11    36    37    1
    12    37    38    1
    13     5     6    1
    14     6    25    1
    15    25    26    2
    16    25    27    2
    17    25    28    1
    18    28    29   ar
    19    29    30   ar
    20    30    31   ar
    21    31    32    1
    22    31    33   ar
    23    33    34   ar
    24     7     8    1
    25     8     9    1
    26    12    13   am
    27    13    14    1
    28    14    15    1
    29    15    16    1
    30    16    17    1
    31    17    18    1
    32    18    19    1
    33    18    20    1
    34    20    21    1
    35    21    22    1
    36    22    23    1
    37     9     7    1
    38    19    13    1
    39     6     1    1
    40    34    28   ar
    41    20    15    1
    42    38    36    1
    43    23    24    1
@<TRIPOS>MOLECULE
*****
 38 43 0 0 0
SMALL
GASTEIGER

@<TRIPOS>ATOM
      1 C          63.7101   90.0034   14.6451 C.3     1  UNL1        0.1455
      2 C          62.9525   89.5987   15.8749 C.3     1  UNL1        0.1634
      3 O          63.1202   90.3739   17.1480 O.3     1  UNL1       -0.3507
      4 C          64.0454   91.5537   17.1914 C.3     1  UNL1        0.1598
      5 C          64.8030   91.9584   15.9617 C.3     1  UNL1        0.1093
      6 N          64.6353   91.1832   14.6885 N.3     1  UNL1       -0.1499
      7 C          63.5424   89.2282   13.3719 C.3     1  UNL1        0.1550
      8 C          62.5841   90.1247   12.6454 C.3     1  UNL1        0.0453
      9 C          63.0621   88.8579   12.0000 C.3     1  UNL1        0.0453
     10 O          64.4425   88.0624   13.6563 O.3     1  UNL1       -0.4403
     11 O          63.8949   87.1279   16.0178 O.2     1  UNL1       -0.2262
     12 C          63.9644   86.9416   14.5311 C.2     1  UNL1        0.4048
     13 N          63.5558   85.6346   13.9191 N.am    1  UNL1       -0.2433
     14 C          63.6253   85.4482   12.4323 C.3     1  UNL1        0.1126
     15 C          63.2167   84.1411   11.8203 C.3     1  UNL1        0.0776
     16 C          62.7303   82.7312   11.6597 C.3     1  UNL1        0.0191
     17 C          62.4142   82.1918   13.0230 C.3     1  UNL1        0.0191
     18 C          62.7051   83.2681   14.0265 C.3     1  UNL1        0.0776
     19 C          63.0777   84.5137   14.7938 C.3     1  UNL1        0.1126
     20 N          63.2011   84.4729   13.2831 N.3     1  UNL1       -0.2699
     21 C          63.6097   85.7800   13.8951 C.3     1  UNL1        0.1043
     22 C          64.6530   85.8101   14.9724 C.3     1  UNL1        0.1544
     23 O          66.1407   85.6196   14.9879 O.3     1  UNL1       -0.3805
     24 H          66.3463   84.6738   14.9228 H       1  UNL1        0.2105
     25 S          65.3929   91.5879   13.4587 S.O2    1  UNL1        0.0635
     26 O          64.5468   92.4175   12.8121 O.2     1  UNL1       -0.1528
     27 O          66.5508   90.7388   13.8926 O.2     1  UNL1       -0.1528
     28 C          66.1505   91.9926   12.2290 C.ar    1  UNL1        0.1223
     29 C          67.6144   91.6865   12.1154 C.ar    1  UNL1        0.0208
     30 C          68.3721   92.0912   10.8856 C.ar    1  UNL1        0.0128
     31 C          67.6656   92.8020    9.7695 C.ar    1  UNL1        0.0578
     32 CL         68.4232   93.2067    8.5398 Cl      1  UNL1       -0.0822
     33 C          66.2016   93.1081    9.8831 C.ar    1  UNL1        0.0128
     34 C          65.4440   92.7034   11.1129 C.ar    1  UNL1        0.0208
     35 C          65.7282   93.1382   16.0051 C.3     1  UNL1        0.0203
     36 C          67.2132   92.9268   16.0189 C.3     1  UNL1        0.0015
     37 C          68.5959   93.4003   15.6815 C.3     1  UNL1        0.0000
     38 C          68.4024   92.0872   16.3802 C.3     1  UNL1        0.0000
@<TRIPOS>BOND
     1    11    12    2
     2    12    10    1
     3    10     7    1
     4     1     7    1
     5     1     2    1
     6     2     3    1
     7     3     4    1
     8     4     5    1
     9     5    35    1
    10    35    36    1
    11    36    37    1
    12    37    38    1
    13     5     6    1
    14     6    25    1
    15    25    26    2
    16    25    27    2
    17    25    28    1
    18    28    29   ar
    19    29    30   ar
    20    30    31   ar
    21    31    32    1
    22    31    33   ar
    23    33    34   ar
    24     7     8    1
    25     8     9    1
    26    12    13   am
    27    13    14    1
    28    14    15    1
    29    15    16    1
    30    16    17    1
    31    17    18    1
    32    18    19    1
    33    18    20    1
    34    20    21    1
    35    21    22    1
    36    22    23    1
    37     9     7    1
    38    19    13    1
    39     6     1    1
    40    34    28   ar
    41    20    15    1
    42    38    36    1
    43    23    24    1
@<TRIPOS>MOLECULE
*****
 38 43 0 0 0
SMALL
GASTEIGER

@<TRIPOS>ATOM
      1 C          61.1549   89.2585   10.4838 C.3     1  UNL1        0.1455
      2 C          60.5010   90.3130    9.6408 C.3     1  UNL1        0.1634
      3 O          59.8048   89.9308    8.3683 O.3     1  UNL1       -0.3507
      4 C          59.7627   88.4943    7.9388 C.3     1  UNL1        0.1598
      5 C          60.4166   87.4398    8.7817 C.3     1  UNL1        0.1093
      6 N          61.1128   87.8220   10.0543 N.3     1  UNL1       -0.1499
      7 C          61.8510   89.6407   11.7563 C.3     1  UNL1        0.1550
      8 C          60.6997   89.5682   12.7150 C.3     1  UNL1        0.0453
      9 C          62.0633   89.9516   13.2083 C.3     1  UNL1        0.0453
     10 O          63.2442   89.8460   11.2396 O.3     1  UNL1       -0.4403
     11 O          63.5157   92.1183   10.0097 O.2     1  UNL1       -0.2262
     12 C          63.8247   91.2277   11.1764 C.2     1  UNL1        0.4048
     13 N          64.7142   91.7186   12.2798 N.am    1  UNL1       -0.2433
     14 C          65.0233   90.8280   13.4466 C.3     1  UNL1        0.1126
     15 C          65.9129   91.3190   14.5501 C.3     1  UNL1        0.0776
     16 C          66.8073   92.1914   15.3801 C.3     1  UNL1        0.0191
     17 C          66.9640   93.5032   14.6700 C.3     1  UNL1        0.0191
     18 C          66.1664   93.4418   13.4011 C.3     1  UNL1        0.0776
     19 C          65.2947   93.1003   12.2167 C.3     1  UNL1        0.1126
     20 N          65.5168   92.0917   13.3270 N.3     1  UNL1       -0.2699
     21 C          64.6273   91.6008   12.2235 C.3     1  UNL1        0.1043
     22 C          64.9392   91.9481   10.7980 C.3     1  UNL1        0.1544
     23 O          66.2066   92.2348   10.0486 O.3     1  UNL1       -0.3805
     24 H          66.5061   93.1346   10.2521 H       1  UNL1        0.2105
     25 S          61.7667   86.7676   10.8972 S.O2    1  UNL1        0.0635
     26 O          60.8063   86.4097   11.7758 O.2     1  UNL1       -0.1528
     27 O          63.0295   86.9146   10.1013 O.2     1  UNL1       -0.1528
     28 C          62.4206   85.7132   11.7402 C.ar    1  UNL1        0.1223
     29 C          62.3214   84.2695   11.3456 C.ar    1  UNL1        0.0208
     30 C          62.9753   83.2150   12.1886 C.ar    1  UNL1        0.0128
     31 C          63.7282   83.6043   13.4261 C.ar    1  UNL1        0.0578
     32 CL         64.3821   82.5498   14.2690 Cl      1  UNL1       -0.0822
     33 C          63.8274   85.0480   13.8207 C.ar    1  UNL1        0.0128
     34 C          63.1736   86.1025   12.9777 C.ar    1  UNL1        0.0208
     35 C          60.3744   86.0034    8.3521 C.3     1  UNL1        0.0203
     36 C          61.5286   85.4116    7.5986 C.3     1  UNL1        0.0015
     37 C          62.9747   85.0181    7.5368 C.3     1  UNL1        0.0000
     38 C          62.0815   84.7801    6.3555 C.3     1  UNL1        0.0000
@<TRIPOS>BOND
     1    11    12    2
     2    12    10    1
     3    10     7    1
     4     1     7    1
     5     1     2    1
     6     2     3    1
     7     3     4    1
     8     4     5    1
     9     5    35    1
    10    35    36    1
    11    36    37    1
    12    37    38    1
    13     5     6    1
    14     6    25    1
    15    25    26    2
    16    25    27    2
    17    25    28    1
    18    28    29   ar
    19    29    30   ar
    20    30    31   ar
    21    31    32    1
    22    31    33   ar
    23    33    34   ar
    24     7     8    1
    25     8     9    1
    26    12    13   am
    27    13    14    1
    28    14    15    1
    29    15    16    1
    30    16    17    1
    31    17    18    1
    32    18    19    1
    33    18    20    1
    34    20    21    1
    35    21    22    1
    36    22    23    1
    37     9     7    1
    38    19    13    1
    39     6     1    1
    40    34    28   ar
    41    20    15    1
    42    38    36    1
    43    23    24    1
@<TRIPOS>MOLECULE
*****
 38 43 0 0 0
SMALL
GASTEIGER

@<TRIPOS>ATOM
      1 C          64.4252   90.0554   14.6390 C.3     1  UNL1        0.1455
      2 C          65.4711   90.7330   15.4739 C.3     1  UNL1        0.1634
      3 O          66.2863   91.8502   14.8933 O.3     1  UNL1       -0.3507
      4 C          66.0557   92.2899   13.4779 C.3     1  UNL1        0.1598
      5 C          65.0098   91.6123   12.6430 C.3     1  UNL1        0.1093
      6 N          64.1946   90.4950   13.2235 N.3     1  UNL1       -0.1499
      7 C          63.6099   88.9381   15.2196 C.3     1  UNL1        0.1550
      8 C          62.8273   89.6954   16.2509 C.3     1  UNL1        0.0453
      9 C          62.6212   88.2186   16.0883 C.3     1  UNL1        0.0453
     10 O          64.1095   87.7927   14.3898 O.3     1  UNL1       -0.4403
     11 O          64.5946   86.2178   16.3983 O.2     1  UNL1       -0.2262
     12 C          64.1667   86.4122   14.9740 C.2     1  UNL1        0.4048
     13 N          63.7958   85.2264   14.1337 N.am    1  UNL1       -0.2433
     14 C          63.3678   85.4208   12.7092 C.3     1  UNL1        0.1126
     15 C          62.9970   84.2349   11.8689 C.3     1  UNL1        0.0776
     16 C          62.7309   82.8260   11.4281 C.3     1  UNL1        0.0191
     17 C          63.0110   81.9168   12.5877 C.3     1  UNL1        0.0191
     18 C          63.4503   82.7636   13.7453 C.3     1  UNL1        0.0776
     19 C          63.8530   83.8460   14.7177 C.3     1  UNL1        0.1126
     20 N          63.4416   84.1964   13.3010 N.3     1  UNL1       -0.2699
     21 C          63.8124   85.3822   14.1413 C.3     1  UNL1        0.1043
     22 C          65.1086   85.3907   14.8960 C.3     1  UNL1        0.1544
     23 O          66.5262   85.0572   14.5364 O.3     1  UNL1       -0.3805
     24 H          66.6356   84.0937   14.5127 H       1  UNL1        0.2105
     25 S          63.1487   89.8174   12.3886 S.O2    1  UNL1        0.0635
     26 O          63.7682   88.7122   11.9228 O.2     1  UNL1       -0.1528
     27 O          62.1785   90.9141   12.7139 O.2     1  UNL1       -0.1528
     28 C          62.1029   89.1398   11.5537 C.ar    1  UNL1        0.1223
     29 C          60.6507   89.4344   11.7864 C.ar    1  UNL1        0.0208
     30 C          59.6048   88.7568   10.9515 C.ar    1  UNL1        0.0128
     31 C          60.0113   87.7846    9.8840 C.ar    1  UNL1        0.0578
     32 CL         58.9654   87.1070    9.0491 Cl      1  UNL1       -0.0822
     33 C          61.4635   87.4900    9.6513 C.ar    1  UNL1        0.0128
     34 C          62.5093   88.1676   10.4862 C.ar    1  UNL1        0.0208
     35 C          64.7792   92.0520   11.2276 C.3     1  UNL1        0.0203
     36 C          65.5742   93.1885   10.6563 C.3     1  UNL1        0.0015
     37 C          65.7470   94.6579   10.4094 C.3     1  UNL1        0.0000
     38 C          66.7780   93.6877    9.9137 C.3     1  UNL1        0.0000
@<TRIPOS>BOND
     1    11    12    2
     2    12    10    1
     3    10     7    1
     4     1     7    1
     5     1     2    1
     6     2     3    1
     7     3     4    1
     8     4     5    1
     9     5    35    1
    10    35    36    1
    11    36    37    1
    12    37    38    1
    13     5     6    1
    14     6    25    1
    15    25    26    2
    16    25    27    2
    17    25    28    1
    18    28    29   ar
    19    29    30   ar
    20    30    31   ar
    21    31    32    1
    22    31    33   ar
    23    33    34   ar
    24     7     8    1
    25     8     9    1
    26    12    13   am
    27    13    14    1
    28    14    15    1
    29    15    16    1
    30    16    17    1
    31    17    18    1
    32    18    19    1
    33    18    20    1
    34    20    21    1
    35    21    22    1
    36    22    23    1
    37     9     7    1
    38    19    13    1
    39     6     1    1
    40    34    28   ar
    41    20    15    1
    42    38    36    1
    43    23    24    1
@<TRIPOS>MOLECULE
*****
 38 43 0 0 0
SMALL
GASTEIGER

@<TRIPOS>ATOM
      1 C          60.5894   88.6759    9.8483 C.3     1  UNL1        0.1455
      2 C          59.8515   89.4797    8.8190 C.3     1  UNL1        0.1634
      3 O          59.4657   88.8520    7.5124 O.3     1  UNL1       -0.3507
      4 C          59.8179   87.4206    7.2352 C.3     1  UNL1        0.1598
      5 C          60.5558   86.6168    8.2644 C.3     1  UNL1        0.1093
      6 N          60.9416   87.2445    9.5710 N.3     1  UNL1       -0.1499
      7 C          60.9752   89.3036   11.1549 C.3     1  UNL1        0.1550
      8 C          59.6308   89.3764   11.8159 C.3     1  UNL1        0.0453
      9 C          60.8475   89.8809   12.5334 C.3     1  UNL1        0.0453
     10 O          62.4538   89.4488   10.9477 O.3     1  UNL1       -0.4403
     11 O          63.3701   89.1516   13.3605 O.2     1  UNL1       -0.2262
     12 C          63.3261   89.9202   12.0732 C.2     1  UNL1        0.4048
     13 N          64.1544   91.1602   11.9113 N.am    1  UNL1       -0.2433
     14 C          64.1105   91.9288   10.6239 C.3     1  UNL1        0.1126
     15 C          64.9388   93.1689   10.4621 C.3     1  UNL1        0.0776
     16 C          65.8901   94.2952   10.7387 C.3     1  UNL1        0.0191
     17 C          66.4191   94.1235   12.1317 C.3     1  UNL1        0.0191
     18 C          65.7949   92.8912   12.7162 C.3     1  UNL1        0.0776
     19 C          65.0268   91.6316   13.0368 C.3     1  UNL1        0.1126
     20 N          64.8799   92.3012   11.6842 N.3     1  UNL1       -0.2699
     21 C          64.0516   91.0612   11.8461 C.3     1  UNL1        0.1043
     22 C          63.6299   90.6143   13.2145 C.3     1  UNL1        0.1544
     23 O          63.2047   91.3330   14.4605 O.3     1  UNL1       -0.3805
     24 H          63.9853   91.6987   14.9052 H       1  UNL1        0.2105
     25 S          61.6795   86.4407   10.6003 S.O2    1  UNL1        0.0635
     26 O          60.8186   86.3692   11.6377 O.2     1  UNL1       -0.1528
     27 O          62.8493   86.3221    9.6690 O.2     1  UNL1       -0.1528
     28 C          62.4173   85.6368   11.6296 C.ar    1  UNL1        0.1223
     29 C          62.4694   84.1420   11.5177 C.ar    1  UNL1        0.0208
     30 C          63.2072   83.3381   12.5469 C.ar    1  UNL1        0.0128
     31 C          63.8929   84.0292   13.6881 C.ar    1  UNL1        0.0578
     32 CL         64.6308   83.2253   14.7174 Cl      1  UNL1       -0.0822
     33 C          63.8408   85.5240   13.8000 C.ar    1  UNL1        0.0128
     34 C          63.1030   86.3279   12.7708 C.ar    1  UNL1        0.0208
     35 C          60.9079   85.1854    7.9871 C.3     1  UNL1        0.0203
     36 C          61.6317   84.8221    6.7245 C.3     1  UNL1        0.0015
     37 C          62.9102   84.6976    5.9500 C.3     1  UNL1        0.0000
     38 C          61.6069   84.3174    5.3122 C.3     1  UNL1        0.0000
@<TRIPOS>BOND
     1    11    12    2
     2    12    10    1
     3    10     7    1
     4     1     7    1
     5     1     2    1
     6     2     3    1
     7     3     4    1
     8     4     5    1
     9     5    35    1
    10    35    36    1
    11    36    37    1
    12    37    38    1
    13     5     6    1
    14     6    25    1
    15    25    26    2
    16    25    27    2
    17    25    28    1
    18    28    29   ar
    19    29    30   ar
    20    30    31   ar
    21    31    32    1
    22    31    33   ar
    23    33    34   ar
    24     7     8    1
    25     8     9    1
    26    12    13   am
    27    13    14    1
    28    14    15    1
    29    15    16    1
    30    16    17    1
    31    17    18    1
    32    18    19    1
    33    18    20    1
    34    20    21    1
    35    21    22    1
    36    22    23    1
    37     9     7    1
    38    19    13    1
    39     6     1    1
    40    34    28   ar
    41    20    15    1
    42    38    36    1
    43    23    24    1
@<TRIPOS>MOLECULE
*****
 38 43 0 0 0
SMALL
GASTEIGER

@<TRIPOS>ATOM
      1 C          62.2338   86.2266   10.5764 C.3     1  UNL1        0.1455
      2 C          62.2698   85.9722    9.0986 C.3     1  UNL1        0.1634
      3 O          63.0585   84.8177    8.5554 O.3     1  UNL1       -0.3507
      4 C          63.8112   83.9177    9.4900 C.3     1  UNL1        0.1598
      5 C          63.7752   84.1722   10.9678 C.3     1  UNL1        0.1093
      6 N          62.9865   85.3267   11.5110 N.3     1  UNL1       -0.1499
      7 C          61.4451   87.3811   11.1196 C.3     1  UNL1        0.1550
      8 C          60.0882   87.0498   10.5729 C.3     1  UNL1        0.0453
      9 C          60.2803   88.2813   11.4074 C.3     1  UNL1        0.0453
     10 O          62.5281   88.1135   11.8551 O.3     1  UNL1       -0.4403
     11 O          62.7591   89.8111    9.9020 O.2     1  UNL1       -0.2262
     12 C          63.0556   89.4104   11.3167 C.2     1  UNL1        0.4048
     13 N          63.8794   90.3065   12.1931 N.am    1  UNL1       -0.2433
     14 C          64.1759   89.9058   13.6079 C.3     1  UNL1        0.1126
     15 C          64.9999   90.8020   14.4843 C.3     1  UNL1        0.0776
     16 C          65.8246   91.9572   14.9693 C.3     1  UNL1        0.0191
     17 C          65.9579   92.9373   13.8417 C.3     1  UNL1        0.0191
     18 C          65.2156   92.3879   12.6597 C.3     1  UNL1        0.0776
     19 C          64.4069   91.6034   11.6548 C.3     1  UNL1        0.1126
     20 N          64.6234   91.0682   13.0569 N.3     1  UNL1       -0.2699
     21 C          63.7996   90.1720   12.1805 C.3     1  UNL1        0.1043
     22 C          62.6456   90.7356   11.4055 C.3     1  UNL1        0.1544
     23 O          61.2032   90.9954   11.7251 O.3     1  UNL1       -0.3805
     24 H          60.7111   90.1599   11.7009 H       1  UNL1        0.2105
     25 S          62.9505   85.5812   12.9889 S.O2    1  UNL1        0.0635
     26 O          63.9822   86.4258   13.2000 O.2     1  UNL1       -0.1528
     27 O          61.7602   84.6774   13.1155 O.2     1  UNL1       -0.1528
     28 C          62.9146   85.8357   14.4667 C.ar    1  UNL1        0.1223
     29 C          62.3061   84.8204   15.3879 C.ar    1  UNL1        0.0208
     30 C          62.2701   85.0748   16.8657 C.ar    1  UNL1        0.0128
     31 C          62.8428   86.3446   17.4222 C.ar    1  UNL1        0.0578
     32 CL         62.8068   86.5991   18.9001 Cl      1  UNL1       -0.0822
     33 C          63.4513   87.3600   16.5010 C.ar    1  UNL1        0.0128
     34 C          63.4873   87.1055   15.0232 C.ar    1  UNL1        0.0208
     35 C          64.5279   83.2722   11.9023 C.3     1  UNL1        0.0203
     36 C          63.8542   82.0667   12.4879 C.3     1  UNL1        0.0015
     37 C          63.5896   81.1669   13.6585 C.3     1  UNL1        0.0000
     38 C          62.9521   80.8786   12.3316 C.3     1  UNL1        0.0000
@<TRIPOS>BOND
     1    11    12    2
     2    12    10    1
     3    10     7    1
     4     1     7    1
     5     1     2    1
     6     2     3    1
     7     3     4    1
     8     4     5    1
     9     5    35    1
    10    35    36    1
    11    36    37    1
    12    37    38    1
    13     5     6    1
    14     6    25    1
    15    25    26    2
    16    25    27    2
    17    25    28    1
    18    28    29   ar
    19    29    30   ar
    20    30    31   ar
    21    31    32    1
    22    31    33   ar
    23    33    34   ar
    24     7     8    1
    25     8     9    1
    26    12    13   am
    27    13    14    1
    28    14    15    1
    29    15    16    1
    30    16    17    1
    31    17    18    1
    32    18    19    1
    33    18    20    1
    34    20    21    1
    35    21    22    1
    36    22    23    1
    37     9     7    1
    38    19    13    1
    39     6     1    1
    40    34    28   ar
    41    20    15    1
    42    38    36    1
    43    23    24    1
@<TRIPOS>MOLECULE
*****
 38 43 0 0 0
SMALL
GASTEIGER

@<TRIPOS>ATOM
      1 C          63.3659   88.0996   12.9799 C.3     1  UNL1        0.1455
      2 C          64.2238   87.7052   14.1454 C.3     1  UNL1        0.1634
      3 O          64.4629   86.2548   14.4438 O.3     1  UNL1       -0.3507
      4 C          63.8441   85.1988   13.5767 C.3     1  UNL1        0.1598
      5 C          62.9861   85.5932   12.4112 C.3     1  UNL1        0.1093
      6 N          62.7470   87.0436   12.1128 N.3     1  UNL1       -0.1499
      7 C          63.1268   89.5501   12.6815 C.3     1  UNL1        0.1550
      8 C          63.5847   89.6013   11.2541 C.3     1  UNL1        0.0453
      9 C          63.0756   90.8433   11.9234 C.3     1  UNL1        0.0453
     10 O          62.5857   90.0026   14.0054 O.3     1  UNL1       -0.4403
     11 O          63.3299   89.6443   16.4687 O.2     1  UNL1       -0.2262
     12 C          63.5245   90.3042   15.1358 C.2     1  UNL1        0.4048
     13 N          64.6578   91.2657   14.9332 N.am    1  UNL1       -0.2433
     14 C          64.8524   91.9256   13.6002 C.3     1  UNL1        0.1126
     15 C          65.9858   92.8871   13.3977 C.3     1  UNL1        0.0776
     16 C          67.1965   93.7376   13.6445 C.3     1  UNL1        0.0191
     17 C          67.6261   93.5308   15.0666 C.3     1  UNL1        0.0191
     18 C          66.6810   92.5524   15.6989 C.3     1  UNL1        0.0776
     19 C          65.5966   91.5673   16.0635 C.3     1  UNL1        0.1126
     20 N          65.6672   92.1546   14.6673 N.3     1  UNL1       -0.2699
     21 C          64.5339   91.1931   14.8699 C.3     1  UNL1        0.1043
     22 C          63.6718   91.2970   16.0930 C.3     1  UNL1        0.1544
     23 O          63.1466   92.4447   16.9035 O.3     1  UNL1       -0.3805
     24 H          63.8547   92.7929   17.4676 H       1  UNL1        0.2105
     25 S          61.8890   87.4380   10.9473 S.O2    1  UNL1        0.0635
     26 O          62.7065   87.3071    9.8810 O.2     1  UNL1       -0.1528
     27 O          60.7391   87.6863   11.8778 O.2     1  UNL1       -0.1528
     28 C          61.0312   87.8324    9.7818 C.ar    1  UNL1        0.1223
     29 C          60.3498   86.7776    8.9614 C.ar    1  UNL1        0.0208
     30 C          59.4919   87.1719    7.7958 C.ar    1  UNL1        0.0128
     31 C          59.3154   88.6210    7.4507 C.ar    1  UNL1        0.0578
     32 CL         58.4575   89.0153    6.2851 Cl      1  UNL1       -0.0822
     33 C          59.9967   89.6757    8.2711 C.ar    1  UNL1        0.0128
     34 C          60.8547   89.2815    9.4367 C.ar    1  UNL1        0.0208
     35 C          62.3673   84.5372   11.5442 C.3     1  UNL1        0.0203
     36 C          63.2033   83.4013   11.0334 C.3     1  UNL1        0.0015
     37 C          63.3868   81.9339   10.7821 C.3     1  UNL1        0.0000
     38 C          64.4677   82.9012   10.4001 C.3     1  UNL1        0.0000
@<TRIPOS>BOND
     1    11    12    2
     2    12    10    1
     3    10     7    1
     4     1     7    1
     5     1     2    1
     6     2     3    1
     7     3     4    1
     8     4     5    1
     9     5    35    1
    10    35    36    1
    11    36    37    1
    12    37    38    1
    13     5     6    1
    14     6    25    1
    15    25    26    2
    16    25    27    2
    17    25    28    1
    18    28    29   ar
    19    29    30   ar
    20    30    31   ar
    21    31    32    1
    22    31    33   ar
    23    33    34   ar
    24     7     8    1
    25     8     9    1
    26    12    13   am
    27    13    14    1
    28    14    15    1
    29    15    16    1
    30    16    17    1
    31    17    18    1
    32    18    19    1
    33    18    20    1
    34    20    21    1
    35    21    22    1
    36    22    23    1
    37     9     7    1
    38    19    13    1
    39     6     1    1
    40    34    28   ar
    41    20    15    1
    42    38    36    1
    43    23    24    1
