@<TRIPOS>MOLECULE
*****
 37 41 0 0 0
SMALL
GASTEIGER

@<TRIPOS>ATOM
      1 C          62.7510   85.9177   17.1698 C.3     1  UNL1        0.0294
      2 C          63.4805   87.1759   16.8024 C.3     1  UNL1        0.0666
      3 S          62.7470   88.4837   16.7629 S.3     1  UNL1       -0.0756
      4 C          64.6065   91.1741   14.6725 C.ar    1  UNL1        0.1680
      5 N          64.2497   91.9571   15.9012 N.ar    1  UNL1       -0.1282
      6 N          63.5097   91.0446   16.8338 N.ar    1  UNL1       -0.1221
      7 C          63.4092   89.6976   16.1815 C.ar    1  UNL1        0.1932
      8 N          64.0870   89.7776   14.8458 N.ar    1  UNL1       -0.2884
      9 C          64.2217   88.6577   13.8570 C.3     1  UNL1        0.1340
     10 C          67.5637   91.6494   14.8423 C.3     1  UNL1        0.0522
     11 C          66.8305   91.9336   13.5649 C.ar    1  UNL1        0.0623
     12 N          67.5760   92.4554   12.3724 N.ar    1  UNL1       -0.2484
     13 CA         66.8428   92.7396   11.0951 C.ar    1  UNL1        0.0948
     14 C          65.3641   92.5019   11.0101 C.ar    1  UNL1        0.0204
     15 C          64.6187   91.9801   12.2026 C.ar    1  UNL1        0.0058
     16 C          65.3519   91.6959   13.4800 C.ar    1  UNL1        0.0495
     17 C          67.5882   93.2614    9.9025 C.2     1  UNL1        0.0905
     18 O          69.0203   92.8723    9.6840 O.co2   1  UNL1       -0.5430
     19 OXT        66.9015   94.1723    8.9286 O.co2   1  UNL1       -0.5430
     20 C          62.0373   85.1284   16.1127 C.3     1  UNL1        0.0730
     21 N          62.8165   84.4770   15.0088 N.3     1  UNL1       -0.2726
     22 C          63.8962   83.4498   15.1791 C.3     1  UNL1        0.0721
     23 C          64.3997   83.0764   13.8163 C.3     1  UNL1        0.0190
     24 C          63.6312   83.8728   12.8039 C.3     1  UNL1        0.0201
     25 C          64.3258   83.3083   11.6002 C.3     1  UNL1        0.0061
     26 C          63.2461   84.3355   11.4300 C.3     1  UNL1        0.0237
     27 C          62.6527   84.7385   13.5409 C.3     1  UNL1        0.0724
     28 C          62.4004   85.1957   10.5385 C.ar    1  UNL1       -0.0225
     29 C          62.5327   85.0891    9.0481 C.ar    1  UNL1       -0.0043
     30 C          61.6870   85.9492    8.1566 C.ar    1  UNL1        0.0035
     31 C          60.7089   86.9161    8.7555 C.ar    1  UNL1        0.0714
     32 C          60.5766   87.0227   10.2458 C.ar    1  UNL1        0.0035
     33 C          61.4223   86.1625   11.1373 C.ar    1  UNL1       -0.0043
     34 C          59.8632   87.7763    7.8640 C.3     1  UNL1        0.4186
     35 F          59.0174   88.6365    6.9724 F       1  UNL1       -0.1659
     36 F          59.2307   86.5483    7.2791 F       1  UNL1       -0.1659
     37 F          60.4957   89.0042    8.4488 F       1  UNL1       -0.1659
@<TRIPOS>UNITY_ATOM_ATTR
18 1
charge -1
@<TRIPOS>BOND
     1    10    11    1
     2    11    12   ar
     3    12    13   ar
     4    13    17    1
     5    17    18   ar
     6    17    19   ar
     7    13    14   ar
     8    14    15   ar
     9    15    16   ar
    10    16     4    1
    11     4     5   ar
    12     5     6   ar
    13     6     7   ar
    14     7     3    1
    15     3     2    1
    16     2     1    1
    17     1    20    1
    18    20    21    1
    19    21    22    1
    20    22    23    1
    21    24    23    1
    22    24    25    1
    23    25    26    1
    24    26    28    1
    25    28    29   ar
    26    29    30   ar
    27    30    31   ar
    28    31    34    1
    29    34    35    1
    30    34    36    1
    31    34    37    1
    32    31    32   ar
    33    32    33   ar
    34    24    27    1
    35     7     8   ar
    36     8     9    1
    37    16    11   ar
    38     8     4   ar
    39    27    21    1
    40    26    24    1
    41    33    28   ar
@<TRIPOS>MOLECULE
*****
 37 41 0 0 0
SMALL
GASTEIGER

@<TRIPOS>ATOM
      1 C          63.0910   85.6781   16.8113 C.3     1  UNL1        0.0294
      2 C          62.3823   86.8864   17.3479 C.3     1  UNL1        0.0666
      3 S          62.9924   88.2472   17.1861 S.3     1  UNL1       -0.0756
      4 C          64.4020   90.0374   14.0438 C.ar    1  UNL1        0.1680
      5 N          64.3266   88.6195   13.5603 N.ar    1  UNL1       -0.1282
      6 N          63.7894   87.7763   14.6785 N.ar    1  UNL1       -0.1221
      7 C          63.5327   88.6731   15.8532 C.ar    1  UNL1        0.1932
      8 N          63.9113   90.0705   15.4610 N.ar    1  UNL1       -0.2884
      9 C          63.8159   91.2874   16.3328 C.3     1  UNL1        0.1340
     10 C          63.1738   90.6511   11.3764 C.3     1  UNL1        0.0522
     11 C          64.2693   91.5222   11.9160 C.ar    1  UNL1        0.0623
     12 N          64.7507   92.7002   11.1218 N.ar    1  UNL1       -0.2484
     13 CA         65.8461   93.5713   11.6614 C.ar    1  UNL1        0.0948
     14 C          66.4603   93.2645   12.9951 C.ar    1  UNL1        0.0204
     15 C          65.9789   92.0865   13.7892 C.ar    1  UNL1        0.0058
     16 C          64.8834   91.2154   13.2497 C.ar    1  UNL1        0.0495
     17 C          66.3276   94.7492   10.8672 C.2     1  UNL1        0.0905
     18 O          65.5030   96.0008   10.8072 O.co2   1  UNL1       -0.5430
     19 OXT        67.6336   94.6756   10.1331 O.co2   1  UNL1       -0.5430
     20 C          62.3499   84.6904   15.9597 C.3     1  UNL1        0.0730
     21 N          63.0119   84.0957   14.7522 N.3     1  UNL1       -0.2726
     22 C          64.0255   82.9901   14.7573 C.3     1  UNL1        0.0721
     23 C          64.4166   82.7133   13.3359 C.3     1  UNL1        0.0190
     24 C          63.6446   83.6479   12.4523 C.3     1  UNL1        0.0201
     25 C          64.2223   83.1541   11.1591 C.3     1  UNL1        0.0061
     26 C          63.2086   84.2598   11.1540 C.3     1  UNL1        0.0237
     27 C          62.7764   84.5023   13.3277 C.3     1  UNL1        0.0724
     28 C          62.3717   85.2514   10.4016 C.ar    1  UNL1       -0.0225
     29 C          62.3042   85.1928    8.9042 C.ar    1  UNL1       -0.0043
     30 C          61.4673   86.1844    8.1518 C.ar    1  UNL1        0.0035
     31 C          60.6978   87.2346    8.8967 C.ar    1  UNL1        0.0714
     32 C          60.7652   87.2932   10.3940 C.ar    1  UNL1        0.0035
     33 C          61.6022   86.3016   11.1465 C.ar    1  UNL1       -0.0043
     34 C          59.8608   88.2262    8.1442 C.3     1  UNL1        0.4186
     35 F          59.0238   89.2179    7.3918 F       1  UNL1       -0.1659
     36 F          59.2683   87.1114    7.3342 F       1  UNL1       -0.1659
     37 F          60.4534   89.3410    8.9542 F       1  UNL1       -0.1659
@<TRIPOS>UNITY_ATOM_ATTR
18 1
charge -1
@<TRIPOS>BOND
     1    10    11    1
     2    11    12   ar
     3    12    13   ar
     4    13    17    1
     5    17    18   ar
     6    17    19   ar
     7    13    14   ar
     8    14    15   ar
     9    15    16   ar
    10    16     4    1
    11     4     5   ar
    12     5     6   ar
    13     6     7   ar
    14     7     3    1
    15     3     2    1
    16     2     1    1
    17     1    20    1
    18    20    21    1
    19    21    22    1
    20    22    23    1
    21    24    23    1
    22    24    25    1
    23    25    26    1
    24    26    28    1
    25    28    29   ar
    26    29    30   ar
    27    30    31   ar
    28    31    34    1
    29    34    35    1
    30    34    36    1
    31    34    37    1
    32    31    32   ar
    33    32    33   ar
    34    24    27    1
    35     7     8   ar
    36     8     9    1
    37    16    11   ar
    38     8     4   ar
    39    27    21    1
    40    26    24    1
    41    33    28   ar
@<TRIPOS>MOLECULE
*****
 37 41 0 0 0
SMALL
GASTEIGER

@<TRIPOS>ATOM
      1 C          61.1649   85.9870    8.3548 C.3     1  UNL1        0.0294
      2 C          60.2676   87.1140    8.7728 C.3     1  UNL1        0.0666
      3 S          60.1575   87.4874   10.2214 S.3     1  UNL1       -0.0756
      4 C          62.3085   90.2955   11.8194 C.ar    1  UNL1        0.1680
      5 N          61.2290   91.0988   11.1566 N.ar    1  UNL1       -0.1282
      6 N          60.2918   90.1447   10.4773 N.ar    1  UNL1       -0.1221
      7 C          60.7922   88.7516   10.7203 C.ar    1  UNL1        0.1932
      8 N          62.0385   88.8447   11.5497 N.ar    1  UNL1       -0.2884
      9 C          62.8691   87.6900   12.0259 C.3     1  UNL1        0.1340
     10 C          64.3771   92.0034   10.4765 C.3     1  UNL1        0.0522
     11 C          64.4907   91.7000   11.9411 C.ar    1  UNL1        0.0623
     12 N          65.6387   92.2507   12.7342 N.ar    1  UNL1       -0.2484
     13 CA         65.7523   91.9473   14.1988 C.ar    1  UNL1        0.0948
     14 C          64.7180   91.0933   14.8703 C.ar    1  UNL1        0.0204
     15 C          63.5700   90.5427   14.0772 C.ar    1  UNL1        0.0058
     16 C          63.4564   90.8461   12.6126 C.ar    1  UNL1        0.0495
     17 C          66.9002   92.4980   14.9919 C.2     1  UNL1        0.0905
     18 O          68.2262   92.7300   14.3302 O.co2   1  UNL1       -0.5430
     19 OXT        66.7222   92.8165   16.4469 O.co2   1  UNL1       -0.5430
     20 C          62.5996   85.9688    8.7922 C.3     1  UNL1        0.0730
     21 N          63.1376   84.7918    9.5506 N.3     1  UNL1       -0.2726
     22 C          63.5965   83.4940    8.9547 C.3     1  UNL1        0.0721
     23 C          64.0537   82.6061   10.0740 C.3     1  UNL1        0.0190
     24 C          63.8772   83.3552   11.3616 C.3     1  UNL1        0.0201
     25 C          64.3938   82.2629   12.2504 C.3     1  UNL1        0.0061
     26 C          63.9349   83.5607   12.8463 C.3     1  UNL1        0.0237
     27 C          63.3111   84.7060   11.0381 C.3     1  UNL1        0.0724
     28 C          63.7031   84.4287   14.0475 C.ar    1  UNL1       -0.0225
     29 C          62.5559   84.1416   14.9702 C.ar    1  UNL1       -0.0043
     30 C          62.3242   85.0096   16.1714 C.ar    1  UNL1        0.0035
     31 C          63.2397   86.1647   16.4499 C.ar    1  UNL1        0.0714
     32 C          64.3870   86.4518   15.5272 C.ar    1  UNL1        0.0035
     33 C          64.6187   85.5838   14.3260 C.ar    1  UNL1       -0.0043
     34 C          63.0080   87.0327   17.6511 C.3     1  UNL1        0.4186
     35 F          62.7763   87.9007   18.8524 F       1  UNL1       -0.1659
     36 F          63.4694   88.2303   16.8747 F       1  UNL1       -0.1659
     37 F          62.5466   85.8351   18.4275 F       1  UNL1       -0.1659
@<TRIPOS>UNITY_ATOM_ATTR
18 1
charge -1
@<TRIPOS>BOND
     1    10    11    1
     2    11    12   ar
     3    12    13   ar
     4    13    17    1
     5    17    18   ar
     6    17    19   ar
     7    13    14   ar
     8    14    15   ar
     9    15    16   ar
    10    16     4    1
    11     4     5   ar
    12     5     6   ar
    13     6     7   ar
    14     7     3    1
    15     3     2    1
    16     2     1    1
    17     1    20    1
    18    20    21    1
    19    21    22    1
    20    22    23    1
    21    24    23    1
    22    24    25    1
    23    25    26    1
    24    26    28    1
    25    28    29   ar
    26    29    30   ar
    27    30    31   ar
    28    31    34    1
    29    34    35    1
    30    34    36    1
    31    34    37    1
    32    31    32   ar
    33    32    33   ar
    34    24    27    1
    35     7     8   ar
    36     8     9    1
    37    16    11   ar
    38     8     4   ar
    39    27    21    1
    40    26    24    1
    41    33    28   ar
@<TRIPOS>MOLECULE
*****
 37 41 0 0 0
SMALL
GASTEIGER

@<TRIPOS>ATOM
      1 C          60.8555   87.2479    9.8128 C.3     1  UNL1        0.0294
      2 C          60.1878   88.4801    9.2782 C.3     1  UNL1        0.0666
      3 S          60.6282   89.8352    9.7471 S.3     1  UNL1       -0.0756
      4 C          63.1889   90.6018   12.5616 C.ar    1  UNL1        0.1680
      5 N          62.2039   89.7386   13.2929 N.ar    1  UNL1       -0.1282
      6 N          61.1248   89.3464   12.3277 N.ar    1  UNL1       -0.1221
      7 C          61.4428   89.9671   10.9997 C.ar    1  UNL1        0.1932
      8 N          62.7184   90.7430   11.1442 N.ar    1  UNL1       -0.2884
      9 C          63.4034   91.5231   10.0615 C.3     1  UNL1        0.1340
     10 C          63.7574   90.3324   15.4948 C.3     1  UNL1        0.0522
     11 C          64.7110   91.0812   14.6117 C.ar    1  UNL1        0.0623
     12 N          65.9489   91.6952   15.1952 N.ar    1  UNL1       -0.2484
     13 CA         66.9025   92.4440   14.3121 C.ar    1  UNL1        0.0948
     14 C          66.6183   92.5787   12.8454 C.ar    1  UNL1        0.0204
     15 C          65.3804   91.9646   12.2619 C.ar    1  UNL1        0.0058
     16 C          64.4268   91.2159   13.1450 C.ar    1  UNL1        0.0495
     17 C          68.1405   93.0581   14.8956 C.2     1  UNL1        0.0905
     18 O          69.4878   92.6998   14.3421 O.co2   1  UNL1       -0.5430
     19 OXT        68.0311   94.0304   16.0325 O.co2   1  UNL1       -0.5430
     20 C          61.7508   86.4349    8.9254 C.3     1  UNL1        0.0730
     21 N          62.5729   85.3226    9.5060 N.3     1  UNL1       -0.2726
     22 C          63.1993   84.1962    8.7387 C.3     1  UNL1        0.0721
     23 C          63.9264   83.3189    9.7143 C.3     1  UNL1        0.0190
     24 C          63.7493   83.9031   11.0845 C.3     1  UNL1        0.0201
     25 C          64.5483   82.8580   11.8051 C.3     1  UNL1        0.0061
     26 C          63.9218   83.9845   12.5723 C.3     1  UNL1        0.0237
     27 C          62.9127   85.1415   10.9557 C.3     1  UNL1        0.0724
     28 C          63.6597   84.6818   13.8742 C.ar    1  UNL1       -0.0225
     29 C          64.4706   85.8841   14.2576 C.ar    1  UNL1       -0.0043
     30 C          64.2085   86.5814   15.5596 C.ar    1  UNL1        0.0035
     31 C          63.1355   86.0764   16.4781 C.ar    1  UNL1        0.0714
     32 C          62.3246   84.8742   16.0947 C.ar    1  UNL1        0.0035
     33 C          62.5867   84.1768   14.7928 C.ar    1  UNL1       -0.0043
     34 C          62.8735   86.7738   17.7800 C.3     1  UNL1        0.4186
     35 F          62.6114   87.4712   19.0820 F       1  UNL1       -0.1659
     36 F          62.3336   85.4978   18.3547 F       1  UNL1       -0.1659
     37 F          63.4134   88.0497   17.2053 F       1  UNL1       -0.1659
@<TRIPOS>UNITY_ATOM_ATTR
18 1
charge -1
@<TRIPOS>BOND
     1    10    11    1
     2    11    12   ar
     3    12    13   ar
     4    13    17    1
     5    17    18   ar
     6    17    19   ar
     7    13    14   ar
     8    14    15   ar
     9    15    16   ar
    10    16     4    1
    11     4     5   ar
    12     5     6   ar
    13     6     7   ar
    14     7     3    1
    15     3     2    1
    16     2     1    1
    17     1    20    1
    18    20    21    1
    19    21    22    1
    20    22    23    1
    21    24    23    1
    22    24    25    1
    23    25    26    1
    24    26    28    1
    25    28    29   ar
    26    29    30   ar
    27    30    31   ar
    28    31    34    1
    29    34    35    1
    30    34    36    1
    31    34    37    1
    32    31    32   ar
    33    32    33   ar
    34    24    27    1
    35     7     8   ar
    36     8     9    1
    37    16    11   ar
    38     8     4   ar
    39    27    21    1
    40    26    24    1
    41    33    28   ar
@<TRIPOS>MOLECULE
*****
 37 41 0 0 0
SMALL
GASTEIGER

@<TRIPOS>ATOM
      1 C          62.2593   84.0852   15.8354 C.3     1  UNL1        0.0294
      2 C          61.9959   85.4275   16.4511 C.3     1  UNL1        0.0666
      3 S          63.1325   86.2348   17.0046 S.3     1  UNL1       -0.0756
      4 C          63.9427   89.6079   15.2634 C.ar    1  UNL1        0.1680
      5 N          63.2968   90.0837   16.5309 N.ar    1  UNL1       -0.1282
      6 N          62.9147   88.8780   17.3374 N.ar    1  UNL1       -0.1221
      7 C          63.3245   87.6571   16.5684 C.ar    1  UNL1        0.1932
      8 N          63.9598   88.1081   15.2866 N.ar    1  UNL1       -0.2884
      9 C          64.5147   87.2160   14.2160 C.3     1  UNL1        0.1340
     10 C          62.3766   89.9580   12.7288 C.3     1  UNL1        0.0522
     11 C          63.6945   90.6539   12.8983 C.ar    1  UNL1        0.0623
     12 N          64.2293   91.5249   11.8004 N.ar    1  UNL1       -0.2484
     13 CA         65.5473   92.2208   11.9699 C.ar    1  UNL1        0.0948
     14 C          66.3305   92.0458   13.2372 C.ar    1  UNL1        0.0204
     15 C          65.7956   91.1748   14.3351 C.ar    1  UNL1        0.0058
     16 C          64.4776   90.4789   14.1656 C.ar    1  UNL1        0.0495
     17 C          66.0822   93.0918   10.8720 C.2     1  UNL1        0.0905
     18 O          67.2454   92.6282   10.0462 O.co2   1  UNL1       -0.5430
     19 OXT        65.4538   94.4264   10.6000 O.co2   1  UNL1       -0.5430
     20 C          63.6470   83.7194   15.3991 C.3     1  UNL1        0.0730
     21 N          63.8878   83.2202   14.0052 N.3     1  UNL1       -0.2726
     22 C          64.6361   81.9750   13.6316 C.3     1  UNL1        0.0721
     23 C          64.6333   81.8639   12.1357 C.3     1  UNL1        0.0190
     24 C          63.8834   83.0404   11.5848 C.3     1  UNL1        0.0201
     25 C          64.0445   82.6669   10.1411 C.3     1  UNL1        0.0061
     26 C          63.2963   83.9122   10.5146 C.3     1  UNL1        0.0237
     27 C          63.4227   83.8787   12.7403 C.3     1  UNL1        0.0724
     28 C          62.5253   85.1344   10.1125 C.ar    1  UNL1       -0.0225
     29 C          61.8626   85.9810   11.1585 C.ar    1  UNL1       -0.0043
     30 C          61.0917   87.2032   10.7564 C.ar    1  UNL1        0.0035
     31 C          60.9834   87.5788    9.3082 C.ar    1  UNL1        0.0714
     32 C          61.6461   86.7322    8.2622 C.ar    1  UNL1        0.0035
     33 C          62.4170   85.5100    8.6643 C.ar    1  UNL1       -0.0043
     34 C          60.2124   88.8011    8.9060 C.3     1  UNL1        0.4186
     35 F          59.4414   90.0234    8.5039 F       1  UNL1       -0.1659
     36 F          59.1933   87.9348    8.2272 F       1  UNL1       -0.1659
     37 F          61.2316   89.6673    9.5849 F       1  UNL1       -0.1659
@<TRIPOS>UNITY_ATOM_ATTR
18 1
charge -1
@<TRIPOS>BOND
     1    10    11    1
     2    11    12   ar
     3    12    13   ar
     4    13    17    1
     5    17    18   ar
     6    17    19   ar
     7    13    14   ar
     8    14    15   ar
     9    15    16   ar
    10    16     4    1
    11     4     5   ar
    12     5     6   ar
    13     6     7   ar
    14     7     3    1
    15     3     2    1
    16     2     1    1
    17     1    20    1
    18    20    21    1
    19    21    22    1
    20    22    23    1
    21    24    23    1
    22    24    25    1
    23    25    26    1
    24    26    28    1
    25    28    29   ar
    26    29    30   ar
    27    30    31   ar
    28    31    34    1
    29    34    35    1
    30    34    36    1
    31    34    37    1
    32    31    32   ar
    33    32    33   ar
    34    24    27    1
    35     7     8   ar
    36     8     9    1
    37    16    11   ar
    38     8     4   ar
    39    27    21    1
    40    26    24    1
    41    33    28   ar
@<TRIPOS>MOLECULE
*****
 37 41 0 0 0
SMALL
GASTEIGER

@<TRIPOS>ATOM
      1 C          62.9206   83.5315   15.5433 C.3     1  UNL1        0.0294
      2 C          62.4053   84.8877   15.9241 C.3     1  UNL1        0.0666
      3 S          63.2639   85.8174   16.7294 S.3     1  UNL1       -0.0756
      4 C          63.7300   89.4217   15.3666 C.ar    1  UNL1        0.1680
      5 N          62.8310   89.6700   16.5415 N.ar    1  UNL1       -0.1282
      6 N          62.5470   88.3500   17.1950 N.ar    1  UNL1       -0.1221
      7 C          63.2704   87.2859   16.4240 C.ar    1  UNL1        0.1932
      8 N          64.0015   87.9482   15.2940 N.ar    1  UNL1       -0.2884
      9 C          64.8544   87.2582   14.2710 C.3     1  UNL1        0.1340
     10 C          65.2734   91.7583   16.4426 C.3     1  UNL1        0.0522
     11 C          65.0353   91.6321   14.9670 C.ar    1  UNL1        0.0623
     12 N          65.5690   92.6743   14.0294 N.ar    1  UNL1       -0.2484
     13 CA         65.3309   92.5482   12.5538 C.ar    1  UNL1        0.0948
     14 C          64.5592   91.3798   12.0157 C.ar    1  UNL1        0.0204
     15 C          64.0255   90.3377   12.9534 C.ar    1  UNL1        0.0058
     16 C          64.2636   90.4638   14.4289 C.ar    1  UNL1        0.0495
     17 C          65.8646   93.5903   11.6162 C.2     1  UNL1        0.0905
     18 O          65.8272   93.3563   10.1350 O.co2   1  UNL1       -0.5430
     19 OXT        66.4356   94.8664   12.1597 O.co2   1  UNL1       -0.5430
     20 C          64.1585   83.4075   14.7053 C.3     1  UNL1        0.0730
     21 N          64.0528   83.3920   13.2091 N.3     1  UNL1       -0.2726
     22 C          64.6406   82.3587   12.2944 C.3     1  UNL1        0.0721
     23 C          64.2918   82.7351   10.8849 C.3     1  UNL1        0.0190
     24 C          63.4885   84.0011   10.9285 C.3     1  UNL1        0.0201
     25 C          63.2994   84.1181    9.4451 C.3     1  UNL1        0.0061
     26 C          62.7116   85.1514   10.3598 C.3     1  UNL1        0.0237
     27 C          63.3407   84.4071   12.3650 C.3     1  UNL1        0.0724
     28 C          61.9237   86.4120   10.5596 C.ar    1  UNL1       -0.0225
     29 C          60.5980   86.5837    9.8791 C.ar    1  UNL1       -0.0043
     30 C          59.8101   87.8444   10.0789 C.ar    1  UNL1        0.0035
     31 C          60.3479   88.9334   10.9591 C.ar    1  UNL1        0.0714
     32 C          61.6736   88.7617   11.6396 C.ar    1  UNL1        0.0035
     33 C          62.4615   87.5010   11.4399 C.ar    1  UNL1       -0.0043
     34 C          59.5600   90.1940   11.1589 C.3     1  UNL1        0.4186
     35 F          58.7721   91.4548   11.3587 F       1  UNL1       -0.1659
     36 F          59.0289   89.6567   12.4548 F       1  UNL1       -0.1659
     37 F          60.0912   90.7313    9.8631 F       1  UNL1       -0.1659
@<TRIPOS>UNITY_ATOM_ATTR
18 1
charge -1
@<TRIPOS>BOND
     1    10    11    1
     2    11    12   ar
     3    12    13   ar
     4    13    17    1
     5    17    18   ar
     6    17    19   ar
     7    13    14   ar
     8    14    15   ar
     9    15    16   ar
    10    16     4    1
    11     4     5   ar
    12     5     6   ar
    13     6     7   ar
    14     7     3    1
    15     3     2    1
    16     2     1    1
    17     1    20    1
    18    20    21    1
    19    21    22    1
    20    22    23    1
    21    24    23    1
    22    24    25    1
    23    25    26    1
    24    26    28    1
    25    28    29   ar
    26    29    30   ar
    27    30    31   ar
    28    31    34    1
    29    34    35    1
    30    34    36    1
    31    34    37    1
    32    31    32   ar
    33    32    33   ar
    34    24    27    1
    35     7     8   ar
    36     8     9    1
    37    16    11   ar
    38     8     4   ar
    39    27    21    1
    40    26    24    1
    41    33    28   ar
@<TRIPOS>MOLECULE
*****
 37 41 0 0 0
SMALL
GASTEIGER

@<TRIPOS>ATOM
      1 C          59.5236   90.3451    5.7834 C.3     1  UNL1        0.0294
      2 C          58.7926   91.2177    4.8065 C.3     1  UNL1        0.0666
      3 S          59.4035   92.5102    4.3524 S.3     1  UNL1       -0.0756
      4 C          62.2199   92.9457    1.7173 C.ar    1  UNL1        0.1680
      5 N          62.8757   92.0119    2.6909 N.ar    1  UNL1       -0.1282
      6 N          61.9005   91.7351    3.7965 N.ar    1  UNL1       -0.1221
      7 C          60.6420   92.4978    3.5062 C.ar    1  UNL1        0.1932
      8 N          60.8393   93.2461    2.2212 N.ar    1  UNL1       -0.2884
      9 C          59.8329   94.1380    1.5568 C.3     1  UNL1        0.1340
     10 C          64.6301   94.7253    1.8725 C.3     1  UNL1        0.0522
     11 C          64.0415   94.3744    0.5381 C.ar    1  UNL1        0.0623
     12 N          64.6581   94.9134   -0.7186 N.ar    1  UNL1       -0.2484
     13 CA         64.0695   94.5625   -2.0530 C.ar    1  UNL1        0.0948
     14 C          62.8644   93.6726   -2.1306 C.ar    1  UNL1        0.0204
     15 C          62.2479   93.1337   -0.8738 C.ar    1  UNL1        0.0058
     16 C          62.8365   93.4846    0.4605 C.ar    1  UNL1        0.0495
     17 C          64.6861   95.1014   -3.3097 C.2     1  UNL1        0.0905
     18 O          65.2428   96.4940   -3.3347 O.co2   1  UNL1       -0.5430
     19 OXT        64.7459   94.2476   -4.5416 O.co2   1  UNL1       -0.5430
     20 C          58.7801   89.7000    6.9153 C.3     1  UNL1        0.0730
     21 N          59.4009   88.5603    7.6675 N.3     1  UNL1       -0.2726
     22 C          59.0846   87.1058    7.4829 C.3     1  UNL1        0.0721
     23 C          59.9352   86.3217    8.4377 C.3     1  UNL1        0.0190
     24 C          60.7773   87.2916    9.2124 C.3     1  UNL1        0.0201
     25 C          61.4827   86.2597   10.0414 C.3     1  UNL1        0.0061
     26 C          61.7990   87.7142   10.2260 C.3     1  UNL1        0.0237
     27 C          60.4471   88.6752    8.7363 C.3     1  UNL1        0.0724
     28 C          62.5716   88.7980   10.9178 C.ar    1  UNL1       -0.0225
     29 C          63.1261   88.5638   12.2917 C.ar    1  UNL1       -0.0043
     30 C          63.8987   89.6476   12.9834 C.ar    1  UNL1        0.0035
     31 C          64.1166   90.9656   12.3013 C.ar    1  UNL1        0.0714
     32 C          63.5621   91.1998   10.9274 C.ar    1  UNL1        0.0035
     33 C          62.7895   90.1160   10.2356 C.ar    1  UNL1       -0.0043
     34 C          64.8892   92.0494   12.9930 C.3     1  UNL1        0.4186
     35 F          65.6617   93.1333   13.6849 F       1  UNL1       -0.1659
     36 F          65.2836   92.6178   11.6621 F       1  UNL1       -0.1659
     37 F          64.4948   91.4811   14.3240 F       1  UNL1       -0.1659
@<TRIPOS>UNITY_ATOM_ATTR
18 1
charge -1
@<TRIPOS>BOND
     1    10    11    1
     2    11    12   ar
     3    12    13   ar
     4    13    17    1
     5    17    18   ar
     6    17    19   ar
     7    13    14   ar
     8    14    15   ar
     9    15    16   ar
    10    16     4    1
    11     4     5   ar
    12     5     6   ar
    13     6     7   ar
    14     7     3    1
    15     3     2    1
    16     2     1    1
    17     1    20    1
    18    20    21    1
    19    21    22    1
    20    22    23    1
    21    24    23    1
    22    24    25    1
    23    25    26    1
    24    26    28    1
    25    28    29   ar
    26    29    30   ar
    27    30    31   ar
    28    31    34    1
    29    34    35    1
    30    34    36    1
    31    34    37    1
    32    31    32   ar
    33    32    33   ar
    34    24    27    1
    35     7     8   ar
    36     8     9    1
    37    16    11   ar
    38     8     4   ar
    39    27    21    1
    40    26    24    1
    41    33    28   ar
@<TRIPOS>MOLECULE
*****
 37 41 0 0 0
SMALL
GASTEIGER

@<TRIPOS>ATOM
      1 C          59.0671   89.3925    6.5822 C.3     1  UNL1        0.0294
      2 C          59.1704   90.4885    5.5633 C.3     1  UNL1        0.0666
      3 S          60.5114   90.8824    5.0189 S.3     1  UNL1       -0.0756
      4 C          61.4555   93.3653    2.1887 C.ar    1  UNL1        0.1680
      5 N          60.0729   93.8328    2.5352 N.ar    1  UNL1       -0.1282
      6 N          59.5510   92.9596    3.6376 N.ar    1  UNL1       -0.1221
      7 C          60.6110   91.9524    3.9724 C.ar    1  UNL1        0.1932
      8 N          61.7880   92.2031    3.0770 N.ar    1  UNL1       -0.2884
      9 C          63.0721   91.4278    3.0708 C.3     1  UNL1        0.1340
     10 C          61.0269   92.6838   -0.7012 C.3     1  UNL1        0.0522
     11 C          62.1343   93.6154   -0.3065 C.ar    1  UNL1        0.0623
     12 N          63.0275   94.2063   -1.3569 N.ar    1  UNL1       -0.2484
     13 CA         64.1349   95.1378   -0.9623 C.ar    1  UNL1        0.0948
     14 C          64.3492   95.4786    0.4828 C.ar    1  UNL1        0.0204
     15 C          63.4561   94.8877    1.5331 C.ar    1  UNL1        0.0058
     16 C          62.3487   93.9562    1.1384 C.ar    1  UNL1        0.0495
     17 C          65.0281   95.7287   -2.0126 C.2     1  UNL1        0.0905
     18 O          66.1573   96.6324   -1.6150 O.co2   1  UNL1       -0.5430
     19 OXT        64.7920   95.4159   -3.4604 O.co2   1  UNL1       -0.5430
     20 C          59.7551   89.5332    7.9076 C.3     1  UNL1        0.0730
     21 N          60.3248   88.3245    8.5891 N.3     1  UNL1       -0.2726
     22 C          60.0826   86.8964    8.1993 C.3     1  UNL1        0.0721
     23 C          60.8448   86.0210    9.1493 C.3     1  UNL1        0.0190
     24 C          61.5582   86.9079   10.1262 C.3     1  UNL1        0.0201
     25 C          62.1994   85.7986   10.9060 C.3     1  UNL1        0.0061
     26 C          62.4416   87.2266   11.2958 C.3     1  UNL1        0.0237
     27 C          61.2368   88.3316    9.7800 C.3     1  UNL1        0.0724
     28 C          63.0915   88.2351   12.1962 C.ar    1  UNL1       -0.0225
     29 C          63.1041   89.6851   11.8124 C.ar    1  UNL1       -0.0043
     30 C          63.7540   90.6936   12.7127 C.ar    1  UNL1        0.0035
     31 C          64.3914   90.2520   13.9968 C.ar    1  UNL1        0.0714
     32 C          64.3788   88.8019   14.3805 C.ar    1  UNL1        0.0035
     33 C          63.7289   87.7935   13.4802 C.ar    1  UNL1       -0.0043
     34 C          65.0413   91.2605   14.8971 C.3     1  UNL1        0.4186
     35 F          65.6912   92.2690   15.7975 F       1  UNL1       -0.1659
     36 F          64.0019   90.9944   15.9454 F       1  UNL1       -0.1659
     37 F          66.0806   91.5265   13.8488 F       1  UNL1       -0.1659
@<TRIPOS>UNITY_ATOM_ATTR
18 1
charge -1
@<TRIPOS>BOND
     1    10    11    1
     2    11    12   ar
     3    12    13   ar
     4    13    17    1
     5    17    18   ar
     6    17    19   ar
     7    13    14   ar
     8    14    15   ar
     9    15    16   ar
    10    16     4    1
    11     4     5   ar
    12     5     6   ar
    13     6     7   ar
    14     7     3    1
    15     3     2    1
    16     2     1    1
    17     1    20    1
    18    20    21    1
    19    21    22    1
    20    22    23    1
    21    24    23    1
    22    24    25    1
    23    25    26    1
    24    26    28    1
    25    28    29   ar
    26    29    30   ar
    27    30    31   ar
    28    31    34    1
    29    34    35    1
    30    34    36    1
    31    34    37    1
    32    31    32   ar
    33    32    33   ar
    34    24    27    1
    35     7     8   ar
    36     8     9    1
    37    16    11   ar
    38     8     4   ar
    39    27    21    1
    40    26    24    1
    41    33    28   ar
@<TRIPOS>MOLECULE
*****
 37 41 0 0 0
SMALL
GASTEIGER

@<TRIPOS>ATOM
      1 C          62.7235   88.7456   16.4435 C.3     1  UNL1        0.0294
      2 C          63.1820   87.5255   17.1859 C.3     1  UNL1        0.0666
      3 S          63.8967   86.4276   16.4554 S.3     1  UNL1       -0.0756
      4 C          62.5204   83.4436   14.3895 C.ar    1  UNL1        0.1680
      5 N          61.2918   83.8696   15.1374 N.ar    1  UNL1       -0.1282
      6 N          61.6579   85.0393   16.0023 N.ar    1  UNL1       -0.1221
      7 C          63.1127   85.3362   15.7890 C.ar    1  UNL1        0.1932
      8 N          63.6457   84.3501   14.7922 N.ar    1  UNL1       -0.2884
      9 C          65.0564   84.2822   14.2869 C.3     1  UNL1        0.1340
     10 C          62.9738   84.0077   11.4782 C.3     1  UNL1        0.0522
     11 C          62.8348   82.5923   11.9552 C.ar    1  UNL1        0.0623
     12 N          62.9226   81.4590   10.9764 N.ar    1  UNL1       -0.2484
     13 CA         62.7837   80.0437   11.4534 C.ar    1  UNL1        0.0948
     14 C          62.5570   79.7616   12.9092 C.ar    1  UNL1        0.0204
     15 C          62.4692   80.8950   13.8879 C.ar    1  UNL1        0.0058
     16 C          62.6081   82.3103   13.4108 C.ar    1  UNL1        0.0495
     17 C          62.8715   78.9104   10.4747 C.2     1  UNL1        0.0905
     18 O          62.8828   77.4935   10.9670 O.co2   1  UNL1       -0.5430
     19 OXT        62.9479   79.1939    9.0038 O.co2   1  UNL1       -0.5430
     20 C          63.4970   90.0260   16.5542 C.3     1  UNL1        0.0730
     21 N          64.0316   90.6885   15.3192 N.3     1  UNL1       -0.2726
     22 C          65.1011   91.7393   15.2750 C.3     1  UNL1        0.0721
     23 C          65.3210   92.1167   13.8400 C.3     1  UNL1        0.0190
     24 C          64.3875   91.2992   12.9974 C.3     1  UNL1        0.0201
     25 C          64.8215   91.8726   11.6810 C.3     1  UNL1        0.0061
     26 C          63.7520   90.8218   11.7252 C.3     1  UNL1        0.0237
     27 C          63.5906   90.4165   13.9116 C.3     1  UNL1        0.0724
     28 C          62.7677   89.9394   11.0163 C.ar    1  UNL1       -0.0225
     29 C          61.7643   90.5391   10.0762 C.ar    1  UNL1       -0.0043
     30 C          60.7800   89.6568    9.3673 C.ar    1  UNL1        0.0035
     31 C          60.7990   88.1748    9.5984 C.ar    1  UNL1        0.0714
     32 C          61.8024   87.5752   10.5385 C.ar    1  UNL1        0.0035
     33 C          62.7868   88.4575   11.2474 C.ar    1  UNL1       -0.0043
     34 C          59.8147   87.2925    8.8895 C.3     1  UNL1        0.4186
     35 F          58.8303   86.4102    8.1805 F       1  UNL1       -0.1659
     36 F          60.3726   86.0968    9.6030 F       1  UNL1       -0.1659
     37 F          59.2568   88.4882    8.1760 F       1  UNL1       -0.1659
@<TRIPOS>UNITY_ATOM_ATTR
18 1
charge -1
@<TRIPOS>BOND
     1    10    11    1
     2    11    12   ar
     3    12    13   ar
     4    13    17    1
     5    17    18   ar
     6    17    19   ar
     7    13    14   ar
     8    14    15   ar
     9    15    16   ar
    10    16     4    1
    11     4     5   ar
    12     5     6   ar
    13     6     7   ar
    14     7     3    1
    15     3     2    1
    16     2     1    1
    17     1    20    1
    18    20    21    1
    19    21    22    1
    20    22    23    1
    21    24    23    1
    22    24    25    1
    23    25    26    1
    24    26    28    1
    25    28    29   ar
    26    29    30   ar
    27    30    31   ar
    28    31    34    1
    29    34    35    1
    30    34    36    1
    31    34    37    1
    32    31    32   ar
    33    32    33   ar
    34    24    27    1
    35     7     8   ar
    36     8     9    1
    37    16    11   ar
    38     8     4   ar
    39    27    21    1
    40    26    24    1
    41    33    28   ar
