@<TRIPOS>MOLECULE
*****
 58 64 0 0 0
SMALL
GASTEIGER

@<TRIPOS>ATOM
      1 N          62.7214   84.0270    9.6335 N.3     1  UNL1       -0.1862
      2 C          62.0013   84.0652    8.3183 C.3     1  UNL1        0.1775
      3 C          61.2765   85.3087    7.8959 C.2     1  UNL1        0.2452
      4 O          60.5564   85.3468    6.5806 O.2     1  UNL1       -0.2732
      5 N          61.2720   86.5140    8.7887 N.am    1  UNL1       -0.2541
      6 C          60.5473   87.7575    8.3663 C.3     1  UNL1        0.1577
      7 C          60.5427   88.9628    9.2591 C.2     1  UNL1        0.2445
      8 O          59.8180   90.2064    8.8366 O.2     1  UNL1       -0.2731
      9 N          61.2629   88.9247   10.5744 N.am    1  UNL1       -0.2705
     10 C          61.9876   87.6812   10.9968 C.3     1  UNL1        0.1359
     11 C          61.9921   86.4758   10.1039 C.3     1  UNL1        0.1908
     12 N          62.7169   85.2323   10.5263 N.am    1  UNL1       -0.1863
     13 C          63.4370   85.1941   11.8416 C.2     1  UNL1        0.3191
     14 O          63.4325   86.3994   12.7344 O.2     1  UNL1       -0.2512
     15 N          64.1618   83.9506   12.2641 N.am    1  UNL1       -0.2836
     16 H          64.1648   83.1595   11.6781 H       1  UNL1        0.1513
     17 C          63.4462   82.7835   10.0559 C.3     1  UNL1        0.1188
     18 C          62.7165   81.0842   11.8808 C.2     1  UNL1       -0.0034
     19 C          62.6712   81.5646   10.4605 C.2     1  UNL1       -0.0071
     20 C          59.8271   87.7957    7.0510 C.3     1  UNL1        0.0556
     21 C          59.6327   89.1021    6.3400 C.ar    1  UNL1       -0.0198
     22 C          58.2645   89.7101    6.2488 C.ar    1  UNL1       -0.0011
     23 C          58.0702   91.0165    5.5378 C.ar    1  UNL1        0.0363
     24 C          59.2440   91.7149    4.9180 C.ar    1  UNL1        0.1337
     25 O          59.0497   93.0214    4.2070 O.3     1  UNL1       -0.5055
     26 C          60.6123   91.1070    5.0093 C.ar    1  UNL1        0.0363
     27 C          60.8067   89.8006    5.7203 C.ar    1  UNL1       -0.0011
     28 H          58.1950   93.4011    4.1500 H       1  UNL1        0.2922
     29 C          61.2583   90.1300   11.4672 C.3     1  UNL1        0.1217
     30 C          62.5141   90.9285   11.6557 C.ar    1  UNL1        0.0135
     31 C          63.0614   91.7443   10.5222 C.ar    1  UNL1       -0.0012
     32 C          64.3171   92.5428   10.7107 C.ar    1  UNL1       -0.0002
     33 C          65.0255   92.5254   12.0327 C.ar    1  UNL1        0.0016
     34 C          64.4782   91.7096   13.1662 C.ar    1  UNL1        0.0214
     35 C          64.9547   91.4989   14.5728 C.ar    1  UNL1        0.0721
     36 C          63.9935   90.5702   15.2536 C.ar    1  UNL1        0.0805
     37 N          62.9230   90.2069   14.2678 N.ar    1  UNL1       -0.3241
     38 C          61.7575   89.2989   14.5266 C.3     1  UNL1        0.1305
     39 C          63.2225   90.9111   12.9777 C.ar    1  UNL1        0.0577
     40 C          66.1779   92.1097   15.1902 C.2     1  UNL1        0.2506
     41 O          66.0953   92.7466   16.5458 O.2     1  UNL1       -0.2699
     42 N          67.4834   92.0835   14.4521 N.am    1  UNL1       -0.2729
     43 C          68.7064   92.6942   15.0694 C.3     1  UNL1        0.1152
     44 C          67.5658   91.4464   13.0965 C.3     1  UNL1        0.1111
     45 C          68.6539   91.8467   12.1447 C.3     1  UNL1        0.0940
     46 N          68.3188   92.6247   10.9068 N.3     1  UNL1       -0.2670
     47 C          68.7862   92.1396    9.5666 C.3     1  UNL1        0.1047
     48 C          68.4511   92.9177    8.3287 C.3     1  UNL1        0.1595
     49 O          67.6487   94.1809    8.4311 O.3     1  UNL1       -0.3508
     50 C          67.1813   94.6660    9.7713 C.3     1  UNL1        0.1595
     51 C          67.5164   93.8879   11.0092 C.3     1  UNL1        0.1047
     52 C          64.8819   83.9124   13.5793 C.3     1  UNL1        0.1177
     53 C          64.3062   84.6193   14.7704 C.ar    1  UNL1       -0.0025
     54 C          63.1923   83.9875   15.5514 C.ar    1  UNL1       -0.0026
     55 C          62.6165   84.6944   16.7426 C.ar    1  UNL1       -0.0003
     56 C          63.1547   86.0330   17.1527 C.ar    1  UNL1       -0.0000
     57 C          64.2687   86.6649   16.3718 C.ar    1  UNL1       -0.0003
     58 C          64.8444   85.9580   15.1806 C.ar    1  UNL1       -0.0026
@<TRIPOS>BOND
     1    18    19    2
     2    19    17    1
     3    17     1    1
     4     1     2    1
     5     2     3    1
     6     3     4    2
     7     3     5   am
     8     5     6    1
     9     6    20    1
    10    20    21    1
    11    21    22   ar
    12    22    23   ar
    13    23    24   ar
    14    24    25    1
    15    24    26   ar
    16    26    27   ar
    17     6     7    1
    18     7     8    2
    19     7     9   am
    20     9    29    1
    21    29    30    1
    22    30    31   ar
    23    31    32   ar
    24    32    33   ar
    25    33    34   ar
    26    34    35   ar
    27    35    40    1
    28    40    41    2
    29    40    42   am
    30    42    43    1
    31    42    44    1
    32    44    45    1
    33    45    46    1
    34    46    47    1
    35    47    48    1
    36    48    49    1
    37    49    50    1
    38    50    51    1
    39    35    36   ar
    40    36    37   ar
    41    37    38    1
    42    37    39   ar
    43     9    10    1
    44    11    10    1
    45    11    12    1
    46    12    13   am
    47    13    14    2
    48    13    15   am
    49    15    52    1
    50    52    53    1
    51    53    54   ar
    52    54    55   ar
    53    55    56   ar
    54    56    57   ar
    55    57    58   ar
    56    12     1    1
    57    58    53   ar
    58    11     5    1
    59    27    21   ar
    60    39    30   ar
    61    39    34   ar
    62    51    46    1
    63    25    28    1
    64    15    16    1
@<TRIPOS>MOLECULE
*****
 58 64 0 0 0
SMALL
GASTEIGER

@<TRIPOS>ATOM
      1 N          61.2310   85.7403    8.0804 N.3     1  UNL1       -0.1862
      2 C          62.1942   84.6942    8.5576 C.3     1  UNL1        0.1775
      3 C          62.8787   84.8535    9.8827 C.2     1  UNL1        0.2452
      4 O          63.8419   83.8073   10.3599 O.2     1  UNL1       -0.2732
      5 N          62.5999   86.0590   10.7307 N.am    1  UNL1       -0.2541
      6 C          63.2844   86.2183   12.0559 C.3     1  UNL1        0.1577
      7 C          63.0057   87.4238   12.9039 C.2     1  UNL1        0.2445
      8 O          63.6901   87.5831   14.2291 O.2     1  UNL1       -0.2731
      9 N          62.0424   88.4700   12.4267 N.am    1  UNL1       -0.2705
     10 C          61.3579   88.3107   11.1015 C.3     1  UNL1        0.1359
     11 C          61.6367   87.1051   10.2535 C.3     1  UNL1        0.1908
     12 N          60.9522   86.9458    8.9283 N.am    1  UNL1       -0.1863
     13 C          59.9890   87.9920    8.4512 C.2     1  UNL1        0.3191
     14 O          59.7102   89.1975    9.2991 O.2     1  UNL1       -0.2512
     15 N          59.3045   87.8327    7.1260 N.am    1  UNL1       -0.2836
     16 H          59.4875   87.0415    6.5694 H       1  UNL1        0.1513
     17 C          60.5465   85.5810    6.7552 C.3     1  UNL1        0.1188
     18 C          62.2944   84.3659    5.2658 C.2     1  UNL1       -0.0034
     19 C          60.9160   84.4415    5.8524 C.2     1  UNL1       -0.0071
     20 C          64.2476   85.1722   12.5331 C.3     1  UNL1        0.0556
     21 C          63.7336   83.8800   13.0953 C.ar    1  UNL1       -0.0198
     22 C          62.5518   83.8813   14.0189 C.ar    1  UNL1       -0.0011
     23 C          62.0378   82.5891   14.5811 C.ar    1  UNL1        0.0363
     24 C          62.7057   81.2956   14.2196 C.ar    1  UNL1        0.1337
     25 O          62.1917   80.0034   14.7818 O.3     1  UNL1       -0.5055
     26 C          63.8876   81.2942   13.2960 C.ar    1  UNL1        0.0363
     27 C          64.4016   82.5864   12.7338 C.ar    1  UNL1       -0.0011
     28 H          61.4534   80.0042   15.3587 H       1  UNL1        0.2922
     29 C          61.7637   89.6755   13.2747 C.3     1  UNL1        0.1217
     30 C          62.7320   90.0782   14.3472 C.ar    1  UNL1        0.0135
     31 C          62.4199   89.7904   15.7859 C.ar    1  UNL1       -0.0012
     32 C          63.3881   90.1931   16.8584 C.ar    1  UNL1       -0.0002
     33 C          64.6684   90.8835   16.4923 C.ar    1  UNL1        0.0016
     34 C          64.9805   91.1712   15.0536 C.ar    1  UNL1        0.0214
     35 C          66.1541   91.8327   14.3940 C.ar    1  UNL1        0.0721
     36 C          65.9111   91.8389   12.9138 C.ar    1  UNL1        0.0805
     37 N          64.5875   91.1812   12.6586 N.ar    1  UNL1       -0.3241
     38 C          63.9507   90.9728   11.3166 C.3     1  UNL1        0.1305
     39 C          64.0123   90.7686   13.9811 C.ar    1  UNL1        0.0577
     40 C          67.3591   92.3903   15.0920 C.2     1  UNL1        0.2506
     41 O          68.1906   91.5066   15.9740 O.2     1  UNL1       -0.2699
     42 N          67.7326   93.8313   14.9081 N.am    1  UNL1       -0.2729
     43 C          68.9375   94.3889   15.6061 C.3     1  UNL1        0.1152
     44 C          66.9010   94.7149   14.0261 C.3     1  UNL1        0.1111
     45 C          66.3256   94.1736   12.7510 C.3     1  UNL1        0.0940
     46 N          66.6920   94.7991   11.4378 N.3     1  UNL1       -0.2670
     47 C          67.4214   93.9959   10.4021 C.3     1  UNL1        0.1047
     48 C          67.7879   94.6213    9.0889 C.3     1  UNL1        0.1595
     49 O          67.4250   96.0501    8.8114 O.3     1  UNL1       -0.3508
     50 C          66.6956   96.8533    9.8472 C.3     1  UNL1        0.1595
     51 C          66.3291   96.2278   11.1604 C.3     1  UNL1        0.1047
     52 C          58.3413   88.8788    6.6488 C.3     1  UNL1        0.1177
     53 C          58.8326   90.0287    5.8204 C.ar    1  UNL1       -0.0025
     54 C          57.8549   91.0085    5.2425 C.ar    1  UNL1       -0.0026
     55 C          58.3463   92.1584    4.4141 C.ar    1  UNL1       -0.0003
     56 C          59.8153   92.3285    4.1635 C.ar    1  UNL1       -0.0000
     57 C          60.7932   91.3487    4.7414 C.ar    1  UNL1       -0.0003
     58 C          60.3018   90.1988    5.5698 C.ar    1  UNL1       -0.0026
@<TRIPOS>BOND
     1    18    19    2
     2    19    17    1
     3    17     1    1
     4     1     2    1
     5     2     3    1
     6     3     4    2
     7     3     5   am
     8     5     6    1
     9     6    20    1
    10    20    21    1
    11    21    22   ar
    12    22    23   ar
    13    23    24   ar
    14    24    25    1
    15    24    26   ar
    16    26    27   ar
    17     6     7    1
    18     7     8    2
    19     7     9   am
    20     9    29    1
    21    29    30    1
    22    30    31   ar
    23    31    32   ar
    24    32    33   ar
    25    33    34   ar
    26    34    35   ar
    27    35    40    1
    28    40    41    2
    29    40    42   am
    30    42    43    1
    31    42    44    1
    32    44    45    1
    33    45    46    1
    34    46    47    1
    35    47    48    1
    36    48    49    1
    37    49    50    1
    38    50    51    1
    39    35    36   ar
    40    36    37   ar
    41    37    38    1
    42    37    39   ar
    43     9    10    1
    44    11    10    1
    45    11    12    1
    46    12    13   am
    47    13    14    2
    48    13    15   am
    49    15    52    1
    50    52    53    1
    51    53    54   ar
    52    54    55   ar
    53    55    56   ar
    54    56    57   ar
    55    57    58   ar
    56    12     1    1
    57    58    53   ar
    58    11     5    1
    59    27    21   ar
    60    39    30   ar
    61    39    34   ar
    62    51    46    1
    63    25    28    1
    64    15    16    1
@<TRIPOS>MOLECULE
*****
 58 64 0 0 0
SMALL
GASTEIGER

@<TRIPOS>ATOM
      1 N          63.7552   86.0449   15.9337 N.3     1  UNL1       -0.1862
      2 C          63.8805   84.5619   16.1209 C.3     1  UNL1        0.1775
      3 C          63.7651   83.6445   14.9398 C.2     1  UNL1        0.2452
      4 O          63.8904   82.1615   15.1270 O.2     1  UNL1       -0.2732
      5 N          63.5244   84.2101   13.5715 N.am    1  UNL1       -0.2541
      6 C          63.4090   83.2926   12.3904 C.3     1  UNL1        0.1577
      7 C          63.1682   83.8582   11.0222 C.2     1  UNL1        0.2445
      8 O          63.0528   82.9408    9.8410 O.2     1  UNL1       -0.2731
      9 N          63.0429   85.3412   10.8350 N.am    1  UNL1       -0.2705
     10 C          63.1583   86.2586   12.0161 C.3     1  UNL1        0.1359
     11 C          63.3990   85.6930   13.3844 C.3     1  UNL1        0.1908
     12 N          63.5144   86.6104   14.5655 N.am    1  UNL1       -0.1863
     13 C          63.3891   88.0935   14.3783 C.2     1  UNL1        0.3191
     14 O          63.1484   88.6590   13.0100 O.2     1  UNL1       -0.2512
     15 N          63.5045   89.0109   15.5594 N.am    1  UNL1       -0.2836
     16 H          63.6625   88.6397   16.4574 H       1  UNL1        0.1513
     17 C          63.8706   86.9623   17.1148 C.3     1  UNL1        0.1188
     18 C          62.7233   87.0861   19.4426 C.2     1  UNL1       -0.0034
     19 C          62.6634   87.2602   17.9539 C.2     1  UNL1       -0.0071
     20 C          63.5343   81.8097   12.5775 C.3     1  UNL1        0.0556
     21 C          62.3633   81.0148   13.0744 C.ar    1  UNL1       -0.0198
     22 C          61.1644   81.7181   13.6382 C.ar    1  UNL1       -0.0011
     23 C          59.9933   80.9232   14.1350 C.ar    1  UNL1        0.0363
     24 C          60.0212   79.4250   14.0681 C.ar    1  UNL1        0.1337
     25 O          58.8502   78.6302   14.5649 O.3     1  UNL1       -0.5055
     26 C          61.2202   78.7216   13.5043 C.ar    1  UNL1        0.0363
     27 C          62.3912   79.5165   13.0074 C.ar    1  UNL1       -0.0011
     28 H          58.1013   79.0695   14.9171 H       1  UNL1        0.2922
     29 C          62.8022   85.9068    9.4667 C.3     1  UNL1        0.1217
     30 C          62.0536   87.1971    9.3095 C.ar    1  UNL1        0.0135
     31 C          62.3755   88.3637   10.1958 C.ar    1  UNL1       -0.0012
     32 C          61.6270   89.6540   10.0386 C.ar    1  UNL1       -0.0002
     33 C          60.5565   89.7778    8.9952 C.ar    1  UNL1        0.0016
     34 C          60.2346   88.6112    8.1090 C.ar    1  UNL1        0.0214
     35 C          59.2387   88.4373    7.0009 C.ar    1  UNL1        0.0721
     36 C          59.3717   87.0396    6.4732 C.ar    1  UNL1        0.0805
     37 N          60.4498   86.3496    7.2551 N.ar    1  UNL1       -0.3241
     38 C          60.9133   84.9364    7.0603 C.3     1  UNL1        0.1305
     39 C          60.9831   87.3209    8.2661 C.ar    1  UNL1        0.0577
     40 C          58.2783   89.4785    6.5071 C.2     1  UNL1        0.2506
     41 O          56.8535   89.4671    6.9759 O.2     1  UNL1       -0.2699
     42 N          58.7428   90.5311    5.5446 N.am    1  UNL1       -0.2729
     43 C          57.7825   91.5722    5.0509 C.3     1  UNL1        0.1152
     44 C          60.1677   90.5424    5.0759 C.3     1  UNL1        0.1111
     45 C          60.8354   91.8422    4.7372 C.3     1  UNL1        0.0940
     46 N          60.9506   92.2756    3.3058 N.3     1  UNL1       -0.2670
     47 C          59.7415   92.7800    2.5753 C.3     1  UNL1        0.1047
     48 C          59.8567   93.2134    1.1439 C.3     1  UNL1        0.1595
     49 O          61.1809   93.1424    0.4430 O.3     1  UNL1       -0.3508
     50 C          62.3900   92.6380    1.1735 C.3     1  UNL1        0.1595
     51 C          62.2748   92.2046    2.6049 C.3     1  UNL1        0.1047
     52 C          63.3792   90.4939   15.3723 C.3     1  UNL1        0.1177
     53 C          64.5904   91.3124   15.0362 C.ar    1  UNL1       -0.0025
     54 C          65.0550   91.4152   13.6137 C.ar    1  UNL1       -0.0026
     55 C          66.2662   92.2338   13.2776 C.ar    1  UNL1       -0.0003
     56 C          67.0128   92.9496   14.3640 C.ar    1  UNL1       -0.0000
     57 C          66.5481   92.8468   15.7866 C.ar    1  UNL1       -0.0003
     58 C          65.3369   92.0283   16.1227 C.ar    1  UNL1       -0.0026
@<TRIPOS>BOND
     1    18    19    2
     2    19    17    1
     3    17     1    1
     4     1     2    1
     5     2     3    1
     6     3     4    2
     7     3     5   am
     8     5     6    1
     9     6    20    1
    10    20    21    1
    11    21    22   ar
    12    22    23   ar
    13    23    24   ar
    14    24    25    1
    15    24    26   ar
    16    26    27   ar
    17     6     7    1
    18     7     8    2
    19     7     9   am
    20     9    29    1
    21    29    30    1
    22    30    31   ar
    23    31    32   ar
    24    32    33   ar
    25    33    34   ar
    26    34    35   ar
    27    35    40    1
    28    40    41    2
    29    40    42   am
    30    42    43    1
    31    42    44    1
    32    44    45    1
    33    45    46    1
    34    46    47    1
    35    47    48    1
    36    48    49    1
    37    49    50    1
    38    50    51    1
    39    35    36   ar
    40    36    37   ar
    41    37    38    1
    42    37    39   ar
    43     9    10    1
    44    11    10    1
    45    11    12    1
    46    12    13   am
    47    13    14    2
    48    13    15   am
    49    15    52    1
    50    52    53    1
    51    53    54   ar
    52    54    55   ar
    53    55    56   ar
    54    56    57   ar
    55    57    58   ar
    56    12     1    1
    57    58    53   ar
    58    11     5    1
    59    27    21   ar
    60    39    30   ar
    61    39    34   ar
    62    51    46    1
    63    25    28    1
    64    15    16    1
@<TRIPOS>MOLECULE
*****
 58 64 0 0 0
SMALL
GASTEIGER

@<TRIPOS>ATOM
      1 N          60.9803   85.4957    7.5779 N.3     1  UNL1       -0.1862
      2 C          61.8230   84.3220    7.9806 C.3     1  UNL1        0.1775
      3 C          62.5462   84.3335    9.2947 C.2     1  UNL1        0.2452
      4 O          63.3889   83.1597    9.6973 O.2     1  UNL1       -0.2732
      5 N          62.4267   85.5188   10.2061 N.am    1  UNL1       -0.2541
      6 C          63.1499   85.5304   11.5202 C.3     1  UNL1        0.1577
      7 C          63.0305   86.7157   12.4316 C.2     1  UNL1        0.2445
      8 O          63.7537   86.7273   13.7457 O.2     1  UNL1       -0.2731
      9 N          62.1878   87.8895   12.0290 N.am    1  UNL1       -0.2705
     10 C          61.4645   87.8780   10.7149 C.3     1  UNL1        0.1359
     11 C          61.5840   86.6926    9.8034 C.3     1  UNL1        0.1908
     12 N          60.8608   86.6810    8.4893 N.am    1  UNL1       -0.1863
     13 C          60.0181   87.8549    8.0867 C.2     1  UNL1        0.3191
     14 O          59.8987   89.0402    8.9981 O.2     1  UNL1       -0.2512
     15 N          59.2949   87.8433    6.7726 N.am    1  UNL1       -0.2836
     16 H          59.3733   87.0653    6.1744 H       1  UNL1        0.1513
     17 C          60.2571   85.4842    6.2638 C.3     1  UNL1        0.1188
     18 C          62.0759   84.2590    4.8707 C.2     1  UNL1       -0.0034
     19 C          60.6323   84.4849    5.2100 C.2     1  UNL1       -0.0071
     20 C          63.9926   84.3567   11.9229 C.3     1  UNL1        0.0556
     21 C          63.3484   83.1403   12.5191 C.ar    1  UNL1       -0.0198
     22 C          63.4662   81.8143   11.8278 C.ar    1  UNL1       -0.0011
     23 C          62.8220   80.5979   12.4240 C.ar    1  UNL1        0.0363
     24 C          62.0601   80.7075   13.7114 C.ar    1  UNL1        0.1337
     25 O          61.4160   79.4911   14.3076 O.3     1  UNL1       -0.5055
     26 C          61.9423   82.0335   14.4027 C.ar    1  UNL1        0.0363
     27 C          62.5865   83.2499   13.8065 C.ar    1  UNL1       -0.0011
     28 H          61.4895   78.6628   13.8758 H       1  UNL1        0.2922
     29 C          62.0683   89.0748   12.9404 C.3     1  UNL1        0.1217
     30 C          63.0753   90.1840   12.8643 C.ar    1  UNL1        0.0135
     31 C          63.2302   90.9706   11.5965 C.ar    1  UNL1       -0.0012
     32 C          64.2372   92.0798   11.5203 C.ar    1  UNL1       -0.0002
     33 C          65.0892   92.4023   12.7119 C.ar    1  UNL1        0.0016
     34 C          64.9343   91.6157   13.9797 C.ar    1  UNL1        0.0214
     35 C          65.6282   91.7036   15.3066 C.ar    1  UNL1        0.0721
     36 C          65.0502   90.6488   16.2028 C.ar    1  UNL1        0.0805
     37 N          63.9990   89.9090   15.4298 N.ar    1  UNL1       -0.3241
     38 C          63.1657   88.7714   15.9410 C.3     1  UNL1        0.1305
     39 C          63.9273   90.5066   14.0559 C.ar    1  UNL1        0.0577
     40 C          66.7104   92.6758   15.6729 C.2     1  UNL1        0.2506
     41 O          66.4872   93.6649   16.7783 O.2     1  UNL1       -0.2699
     42 N          68.0156   92.6587   14.9339 N.am    1  UNL1       -0.2729
     43 C          69.0977   93.6307   15.3002 C.3     1  UNL1        0.1152
     44 C          68.2387   91.6694   13.8286 C.3     1  UNL1        0.1111
     45 C          69.0859   92.0422   12.6483 C.3     1  UNL1        0.0940
     46 N          68.4475   92.6157   11.4180 N.3     1  UNL1       -0.2670
     47 C          67.4321   93.7128   11.5418 C.3     1  UNL1        0.1047
     48 C          66.7937   94.2862   10.3115 C.3     1  UNL1        0.1595
     49 O          67.1708   93.7626    8.9574 O.3     1  UNL1       -0.3508
     50 C          68.1861   92.6655    8.8336 C.3     1  UNL1        0.1595
     51 C          68.8245   92.0921   10.0639 C.3     1  UNL1        0.1047
     52 C          58.4523   89.0170    6.3699 C.3     1  UNL1        0.1177
     53 C          59.0628   90.1490    5.5980 C.ar    1  UNL1       -0.0025
     54 C          58.1984   91.2687    5.0988 C.ar    1  UNL1       -0.0026
     55 C          58.8090   92.4006    4.3269 C.ar    1  UNL1       -0.0003
     56 C          60.2839   92.4129    4.0541 C.ar    1  UNL1       -0.0000
     57 C          61.1483   91.2932    4.5532 C.ar    1  UNL1       -0.0003
     58 C          60.5378   90.1613    5.3252 C.ar    1  UNL1       -0.0026
@<TRIPOS>BOND
     1    18    19    2
     2    19    17    1
     3    17     1    1
     4     1     2    1
     5     2     3    1
     6     3     4    2
     7     3     5   am
     8     5     6    1
     9     6    20    1
    10    20    21    1
    11    21    22   ar
    12    22    23   ar
    13    23    24   ar
    14    24    25    1
    15    24    26   ar
    16    26    27   ar
    17     6     7    1
    18     7     8    2
    19     7     9   am
    20     9    29    1
    21    29    30    1
    22    30    31   ar
    23    31    32   ar
    24    32    33   ar
    25    33    34   ar
    26    34    35   ar
    27    35    40    1
    28    40    41    2
    29    40    42   am
    30    42    43    1
    31    42    44    1
    32    44    45    1
    33    45    46    1
    34    46    47    1
    35    47    48    1
    36    48    49    1
    37    49    50    1
    38    50    51    1
    39    35    36   ar
    40    36    37   ar
    41    37    38    1
    42    37    39   ar
    43     9    10    1
    44    11    10    1
    45    11    12    1
    46    12    13   am
    47    13    14    2
    48    13    15   am
    49    15    52    1
    50    52    53    1
    51    53    54   ar
    52    54    55   ar
    53    55    56   ar
    54    56    57   ar
    55    57    58   ar
    56    12     1    1
    57    58    53   ar
    58    11     5    1
    59    27    21   ar
    60    39    30   ar
    61    39    34   ar
    62    51    46    1
    63    25    28    1
    64    15    16    1
@<TRIPOS>MOLECULE
*****
 58 64 0 0 0
SMALL
GASTEIGER

@<TRIPOS>ATOM
      1 N          61.1514   85.5018    7.9161 N.3     1  UNL1       -0.1862
      2 C          62.0533   84.3746    8.3234 C.3     1  UNL1        0.1775
      3 C          62.7676   84.4244    9.6415 C.2     1  UNL1        0.2452
      4 O          63.6696   83.2971   10.0488 O.2     1  UNL1       -0.2732
      5 N          62.5801   85.6013   10.5522 N.am    1  UNL1       -0.2541
      6 C          63.2944   85.6511   11.8702 C.3     1  UNL1        0.1577
      7 C          63.1068   86.8281   12.7810 C.2     1  UNL1        0.2445
      8 O          63.8211   86.8779   14.0990 O.2     1  UNL1       -0.2731
      9 N          62.2049   87.9554   12.3737 N.am    1  UNL1       -0.2705
     10 C          61.4905   87.9056   11.0556 C.3     1  UNL1        0.1359
     11 C          61.6782   86.7285   10.1449 C.3     1  UNL1        0.1908
     12 N          60.9639   86.6787    8.8268 N.am    1  UNL1       -0.1863
     13 C          60.0619   87.8060    8.4195 C.2     1  UNL1        0.3191
     14 O          59.8743   88.9830    9.3302 O.2     1  UNL1       -0.2512
     15 N          59.3476   87.7563    7.1015 N.am    1  UNL1       -0.2836
     16 H          59.4707   86.9837    6.5037 H       1  UNL1        0.1513
     17 C          60.4371   85.4520    6.5980 C.3     1  UNL1        0.1188
     18 C          61.9684   84.2816    4.8558 C.2     1  UNL1       -0.0034
     19 C          60.6950   84.3207    5.6475 C.2     1  UNL1       -0.0071
     20 C          64.1963   84.5239   12.2776 C.3     1  UNL1        0.0556
     21 C          63.6105   83.2480   12.8057 C.ar    1  UNL1       -0.0198
     22 C          62.5780   83.2903   13.8929 C.ar    1  UNL1       -0.0011
     23 C          61.9922   82.0144   14.4210 C.ar    1  UNL1        0.0363
     24 C          62.4389   80.6962   13.8619 C.ar    1  UNL1        0.1337
     25 O          61.8531   79.4202   14.3900 O.3     1  UNL1       -0.5055
     26 C          63.4714   80.6538   12.7746 C.ar    1  UNL1        0.0363
     27 C          64.0572   81.9297   12.2465 C.ar    1  UNL1       -0.0011
     28 H          61.2082   79.4467   15.0692 H       1  UNL1        0.2922
     29 C          62.0173   89.1323   13.2844 C.3     1  UNL1        0.1217
     30 C          63.0920   90.1728   13.3965 C.ar    1  UNL1        0.0135
     31 C          63.8049   90.3772   14.7004 C.ar    1  UNL1       -0.0012
     32 C          64.8796   91.4176   14.8125 C.ar    1  UNL1       -0.0002
     33 C          65.2415   92.2534   13.6208 C.ar    1  UNL1        0.0016
     34 C          64.5286   92.0490   12.3169 C.ar    1  UNL1        0.0214
     35 C          64.6681   92.7172   10.9813 C.ar    1  UNL1        0.0721
     36 C          63.6795   92.0898   10.0437 C.ar    1  UNL1        0.0805
     37 N          62.9292   91.0339   10.7998 N.ar    1  UNL1       -0.3241
     38 C          61.8444   90.1571   10.2480 C.3     1  UNL1        0.1305
     39 C          63.4539   91.0086   12.2048 C.ar    1  UNL1        0.0577
     40 C          65.6276   93.8194   10.6426 C.2     1  UNL1        0.2506
     41 O          65.1201   95.2129   10.4178 O.2     1  UNL1       -0.2699
     42 N          67.0947   93.5280   10.5289 N.am    1  UNL1       -0.2729
     43 C          68.0542   94.6300   10.1903 C.3     1  UNL1        0.1152
     44 C          67.6021   92.1344   10.7538 C.3     1  UNL1        0.1111
     45 C          68.5775   91.8609   11.8601 C.3     1  UNL1        0.0940
     46 N          68.2864   92.3387   13.2518 N.3     1  UNL1       -0.2670
     47 C          68.7322   91.5273   14.4320 C.3     1  UNL1        0.1047
     48 C          68.4412   92.0051   15.8237 C.3     1  UNL1        0.1595
     49 O          67.7043   93.2944   16.0353 O.3     1  UNL1       -0.3508
     50 C          67.2585   94.1058   14.8551 C.3     1  UNL1        0.1595
     51 C          67.5495   93.6280   13.4634 C.3     1  UNL1        0.1047
     52 C          58.4457   88.8835    6.6941 C.3     1  UNL1        0.1177
     53 C          58.9805   90.0064    5.8557 C.ar    1  UNL1       -0.0025
     54 C          60.4518   90.1016    5.5798 C.ar    1  UNL1       -0.0026
     55 C          60.9866   91.2246    4.7415 C.ar    1  UNL1       -0.0003
     56 C          60.0501   92.2524    4.1790 C.ar    1  UNL1       -0.0000
     57 C          58.5787   92.1573    4.4548 C.ar    1  UNL1       -0.0003
     58 C          58.0439   91.0343    5.2932 C.ar    1  UNL1       -0.0026
@<TRIPOS>BOND
     1    18    19    2
     2    19    17    1
     3    17     1    1
     4     1     2    1
     5     2     3    1
     6     3     4    2
     7     3     5   am
     8     5     6    1
     9     6    20    1
    10    20    21    1
    11    21    22   ar
    12    22    23   ar
    13    23    24   ar
    14    24    25    1
    15    24    26   ar
    16    26    27   ar
    17     6     7    1
    18     7     8    2
    19     7     9   am
    20     9    29    1
    21    29    30    1
    22    30    31   ar
    23    31    32   ar
    24    32    33   ar
    25    33    34   ar
    26    34    35   ar
    27    35    40    1
    28    40    41    2
    29    40    42   am
    30    42    43    1
    31    42    44    1
    32    44    45    1
    33    45    46    1
    34    46    47    1
    35    47    48    1
    36    48    49    1
    37    49    50    1
    38    50    51    1
    39    35    36   ar
    40    36    37   ar
    41    37    38    1
    42    37    39   ar
    43     9    10    1
    44    11    10    1
    45    11    12    1
    46    12    13   am
    47    13    14    2
    48    13    15   am
    49    15    52    1
    50    52    53    1
    51    53    54   ar
    52    54    55   ar
    53    55    56   ar
    54    56    57   ar
    55    57    58   ar
    56    12     1    1
    57    58    53   ar
    58    11     5    1
    59    27    21   ar
    60    39    30   ar
    61    39    34   ar
    62    51    46    1
    63    25    28    1
    64    15    16    1
