@<TRIPOS>MOLECULE
*****
 54 57 0 0 0
SMALL
GASTEIGER

@<TRIPOS>ATOM
      1 C          62.3145   87.9541   11.0162 C.3     1  UNL1        0.0760
      2 C          60.5794   88.4421    9.1450 C.2     1  UNL1        0.2404
      3 O          59.7885   89.2875   10.0989 O.2     1  UNL1       -0.2733
      4 N          61.8424   87.7754    9.6037 N.am    1  UNL1       -0.3043
      5 H          62.3615   87.2206    8.9776 H       1  UNL1        0.1494
      6 C          60.1073   88.2634    7.7325 C.3     1  UNL1        0.1511
      7 N          58.8655   91.1294    5.2842 N.am    1  UNL1       -0.2567
      8 C          57.5799   91.6750    4.7370 C.3     1  UNL1        0.1168
      9 C          58.8436   89.9692    6.2347 C.2     1  UNL1        0.3046
     10 O          57.5360   89.3546    6.6381 O.2     1  UNL1       -0.2526
     11 N          60.1292   89.4236    6.7820 N.am    1  UNL1       -0.2824
     12 H          60.9874   89.8270    6.5173 H       1  UNL1        0.1514
     13 C          60.1730   91.7439    4.8809 C.3     1  UNL1        0.1413
     14 C          59.8557   93.3369    1.3557 C.ar    1  UNL1        0.0875
     15 N          59.2422   92.8698    2.6423 N.ar    1  UNL1       -0.2453
     16 C          60.3386   92.3199    3.5058 C.ar    1  UNL1        0.0858
     17 C          61.6297   92.4471    2.7528 C.ar    1  UNL1        0.0530
     18 S          61.3312   93.0756    1.4239 S.2     1  UNL1       -0.0705
     19 C          59.4947   95.3297   -0.2718 C.3     1  UNL1        0.0069
     20 C          59.1224   93.9564    0.2031 C.3     1  UNL1        0.0465
     21 C          58.0167   93.2026   -0.4747 C.3     1  UNL1        0.0069
     22 C          59.6133   86.9246    7.2706 C.3     1  UNL1        0.0463
     23 C          60.2828   85.6714    7.7513 C.3     1  UNL1        0.0744
     24 N          61.4466   85.1048    6.9934 N.3     1  UNL1       -0.2702
     25 C          62.8454   85.3389    7.4819 C.3     1  UNL1        0.0897
     26 C          61.2117   84.3040    5.7469 C.3     1  UNL1        0.0897
     27 C          63.0603   89.1957   11.4063 C.3     1  UNL1        0.0216
     28 C          62.6513   89.9634   12.6284 C.3     1  UNL1        0.0217
     29 C          63.6715   90.7513   13.3955 C.3     1  UNL1        0.0792
     30 N          64.5205   91.7668   12.6898 N.am    1  UNL1       -0.2720
     31 C          65.9461   91.9734   13.1080 C.2     1  UNL1        0.4019
     32 O          66.5228   91.1645   14.2319 O.2     1  UNL1       -0.2264
     33 H          64.1420   92.2978   11.9522 H       1  UNL1        0.1527
     34 O          66.7951   92.9890   12.4024 O.3     1  UNL1       -0.4291
     35 C          66.1731   94.2442   11.8663 C.3     1  UNL1        0.2447
     36 C          66.6357   94.8104   10.5566 C.ar    1  UNL1        0.0714
     37 C          67.0936   94.0199    9.3668 C.ar    1  UNL1        0.1053
     38 N          67.4625   94.9873    8.2815 N.ar    1  UNL1       -0.2350
     39 C          67.2326   96.3758    8.8005 C.ar    1  UNL1        0.1343
     40 S          66.7216   96.2664   10.2065 S.2     1  UNL1       -0.0652
     41 C          63.8427   90.5237   14.8681 C.3     1  UNL1        0.0460
     42 C          63.7522   89.1350   15.4280 C.ar    1  UNL1       -0.0205
     43 C          62.9905   88.8856   16.6959 C.ar    1  UNL1       -0.0042
     44 C          62.9000   87.4970   17.2556 C.ar    1  UNL1       -0.0003
     45 C          63.5712   86.3577   16.5475 C.ar    1  UNL1       -0.0000
     46 C          64.3329   86.6070   15.2796 C.ar    1  UNL1       -0.0003
     47 C          64.4234   87.9957   14.7199 C.ar    1  UNL1       -0.0042
     48 C          62.0409   86.8911   12.0386 C.3     1  UNL1        0.0459
     49 C          62.7050   85.5511   11.9234 C.ar    1  UNL1       -0.0205
     50 C          62.8694   84.9086   10.5780 C.ar    1  UNL1       -0.0042
     51 C          63.5335   83.5686   10.4629 C.ar    1  UNL1       -0.0003
     52 C          64.0332   82.8710   11.6931 C.ar    1  UNL1       -0.0000
     53 C          63.8688   83.5134   13.0386 C.ar    1  UNL1       -0.0003
     54 C          63.2047   84.8534   13.1538 C.ar    1  UNL1       -0.0042
@<TRIPOS>BOND
     1    19    20    1
     2    20    21    1
     3    20    14    1
     4    14    15   ar
     5    15    16   ar
     6    16    13    1
     7    13     7    1
     8     7     8    1
     9     7     9   am
    10     9    10    2
    11     9    11   am
    12    11     6    1
    13     6    22    1
    14    22    23    1
    15    23    24    1
    16    24    25    1
    17    24    26    1
    18     6     2    1
    19     2     3    2
    20     2     4   am
    21     4     1    1
    22     1    27    1
    23    27    28    1
    24    29    28    1
    25    29    41    1
    26    41    42    1
    27    42    43   ar
    28    43    44   ar
    29    44    45   ar
    30    45    46   ar
    31    46    47   ar
    32    29    30    1
    33    30    31   am
    34    31    32    2
    35    31    34    1
    36    34    35    1
    37    35    36    1
    38    36    37   ar
    39    37    38   ar
    40    38    39   ar
    41    39    40   ar
    42     1    48    1
    43    48    49    1
    44    49    50   ar
    45    50    51   ar
    46    51    52   ar
    47    52    53   ar
    48    53    54   ar
    49    16    17   ar
    50    17    18   ar
    51    18    14   ar
    52    47    42   ar
    53    40    36   ar
    54    54    49   ar
    55    11    12    1
    56     4     5    1
    57    30    33    1
@<TRIPOS>MOLECULE
*****
 54 57 0 0 0
SMALL
GASTEIGER

@<TRIPOS>ATOM
      1 C          62.7210   87.9990   11.7297 C.3     1  UNL1        0.0760
      2 C          62.8467   89.6614   13.7224 C.2     1  UNL1        0.2404
      3 O          61.4052   90.0202   13.5140 O.2     1  UNL1       -0.2733
      4 N          63.5046   88.6508   12.8303 N.am    1  UNL1       -0.3043
      5 H          64.4507   88.4153   12.9671 H       1  UNL1        0.1494
      6 C          63.6303   90.3132   14.8230 C.3     1  UNL1        0.1511
      7 N          66.9107   92.4892   14.3196 N.am    1  UNL1       -0.2567
      8 C          68.3993   92.3378   14.4260 C.3     1  UNL1        0.1168
      9 C          66.0148   91.3256   14.6245 C.2     1  UNL1        0.3046
     10 O          66.6073   90.0103   15.0358 O.2     1  UNL1       -0.2526
     11 N          64.5262   91.4770   14.5180 N.am    1  UNL1       -0.2824
     12 H          64.1373   92.3402   14.2481 H       1  UNL1        0.1514
     13 C          66.3182   93.8044   13.9082 C.3     1  UNL1        0.1413
     14 C          67.0924   94.4170   10.1544 C.ar    1  UNL1        0.0875
     15 N          67.1066   93.5358   11.3683 N.ar    1  UNL1       -0.2453
     16 C          66.5024   94.3042   12.5060 C.ar    1  UNL1        0.0858
     17 C          66.1147   95.6603   11.9953 C.ar    1  UNL1        0.0530
     18 S          66.4793   95.7300   10.5420 S.2     1  UNL1       -0.0705
     19 C          68.4472   92.8236    8.6131 C.3     1  UNL1        0.0069
     20 C          67.6018   94.0496    8.7922 C.3     1  UNL1        0.0465
     21 C          67.2657   94.9083    7.6091 C.3     1  UNL1        0.0069
     22 C          63.5179   89.8012   16.2284 C.3     1  UNL1        0.0463
     23 C          62.5875   88.6670   16.5413 C.3     1  UNL1        0.0744
     24 N          63.1255   87.2747   16.6892 N.3     1  UNL1       -0.2702
     25 C          64.2145   86.7907   15.7783 C.3     1  UNL1        0.0897
     26 C          62.5744   86.3662   17.7481 C.3     1  UNL1        0.0897
     27 C          62.6365   88.6511   10.3816 C.3     1  UNL1        0.0216
     28 C          61.3605   89.3075    9.9446 C.3     1  UNL1        0.0217
     29 C          60.5478   88.7046    8.8373 C.3     1  UNL1        0.0792
     30 N          60.1091   89.5535    7.6811 N.am    1  UNL1       -0.2720
     31 C          58.9091   89.1576    6.8728 C.2     1  UNL1        0.4019
     32 O          58.1479   87.9129    7.2206 O.2     1  UNL1       -0.2264
     33 H          60.6087   90.3705    7.4528 H       1  UNL1        0.1527
     34 O          58.4704   90.0066    5.7166 O.3     1  UNL1       -0.4291
     35 C          58.9355   91.4287    5.6113 C.3     1  UNL1        0.2447
     36 C          59.9171   91.8199    4.5467 C.ar    1  UNL1        0.0714
     37 C          61.3311   91.3334    4.4294 C.ar    1  UNL1        0.1053
     38 N          61.9450   91.9791    3.2227 N.ar    1  UNL1       -0.2350
     39 C          60.9104   92.8648    2.5941 C.ar    1  UNL1        0.1343
     40 S          59.6571   92.7664    3.4124 S.2     1  UNL1       -0.0652
     41 C          60.1739   87.2528    8.8862 C.3     1  UNL1        0.0460
     42 C          60.9630   86.2481    8.1000 C.ar    1  UNL1       -0.0205
     43 C          60.2953   85.4484    7.0209 C.ar    1  UNL1       -0.0042
     44 C          61.0844   84.4438    6.2347 C.ar    1  UNL1       -0.0003
     45 C          62.5411   84.2389    6.5277 C.ar    1  UNL1       -0.0000
     46 C          63.2088   85.0386    7.6069 C.ar    1  UNL1       -0.0003
     47 C          62.4197   86.0432    8.3930 C.ar    1  UNL1       -0.0042
     48 C          62.0220   86.6952   11.9774 C.3     1  UNL1        0.0459
     49 C          62.8137   85.4239   12.0621 C.ar    1  UNL1       -0.0205
     50 C          63.6385   85.1338   13.2808 C.ar    1  UNL1       -0.0042
     51 C          64.4303   83.8626   13.3655 C.ar    1  UNL1       -0.0003
     52 C          64.3972   82.8815   12.2313 C.ar    1  UNL1       -0.0000
     53 C          63.5723   83.1716   11.0125 C.ar    1  UNL1       -0.0003
     54 C          62.7805   84.4428   10.9279 C.ar    1  UNL1       -0.0042
@<TRIPOS>BOND
     1    19    20    1
     2    20    21    1
     3    20    14    1
     4    14    15   ar
     5    15    16   ar
     6    16    13    1
     7    13     7    1
     8     7     8    1
     9     7     9   am
    10     9    10    2
    11     9    11   am
    12    11     6    1
    13     6    22    1
    14    22    23    1
    15    23    24    1
    16    24    25    1
    17    24    26    1
    18     6     2    1
    19     2     3    2
    20     2     4   am
    21     4     1    1
    22     1    27    1
    23    27    28    1
    24    29    28    1
    25    29    41    1
    26    41    42    1
    27    42    43   ar
    28    43    44   ar
    29    44    45   ar
    30    45    46   ar
    31    46    47   ar
    32    29    30    1
    33    30    31   am
    34    31    32    2
    35    31    34    1
    36    34    35    1
    37    35    36    1
    38    36    37   ar
    39    37    38   ar
    40    38    39   ar
    41    39    40   ar
    42     1    48    1
    43    48    49    1
    44    49    50   ar
    45    50    51   ar
    46    51    52   ar
    47    52    53   ar
    48    53    54   ar
    49    16    17   ar
    50    17    18   ar
    51    18    14   ar
    52    47    42   ar
    53    40    36   ar
    54    54    49   ar
    55    11    12    1
    56     4     5    1
    57    30    33    1
@<TRIPOS>MOLECULE
*****
 54 57 0 0 0
SMALL
GASTEIGER

@<TRIPOS>ATOM
      1 C          62.0518   88.7931   11.5471 C.3     1  UNL1        0.0760
      2 C          62.5459   86.5332   10.3644 C.2     1  UNL1        0.2404
      3 O          62.6797   87.2488    9.0529 O.2     1  UNL1       -0.2733
      4 N          62.2319   87.3053   11.6115 N.am    1  UNL1       -0.3043
      5 H          62.1441   86.8356   12.4723 H       1  UNL1        0.1494
      6 C          62.7260   85.0454   10.4288 C.3     1  UNL1        0.1511
      7 N          62.8169   82.1835   13.1768 N.am    1  UNL1       -0.2567
      8 C          63.2897   80.7677   13.3242 C.3     1  UNL1        0.1168
      9 C          63.0079   82.9065   11.8766 C.2     1  UNL1        0.3046
     10 O          63.6718   82.2137   10.7236 O.2     1  UNL1       -0.2526
     11 N          62.5350   84.3224   11.7292 N.am    1  UNL1       -0.2824
     12 H          62.0993   84.7772   12.4859 H       1  UNL1        0.1514
     13 C          62.1530   82.8764   14.3297 C.3     1  UNL1        0.1413
     14 C          63.2086   86.0178   16.3504 C.ar    1  UNL1        0.0875
     15 N          62.1789   85.0041   15.9476 N.ar    1  UNL1       -0.2453
     16 C          62.8204   84.0491   14.9851 C.ar    1  UNL1        0.0858
     17 C          64.2466   84.4725   14.7931 C.ar    1  UNL1        0.0530
     18 S          64.4865   85.6893   15.6368 S.2     1  UNL1       -0.0705
     19 C          63.1264   88.5728   16.8143 C.3     1  UNL1        0.0069
     20 C          62.9974   87.1595   17.3001 C.3     1  UNL1        0.0465
     21 C          62.6573   86.8880   18.7355 C.3     1  UNL1        0.0069
     22 C          63.0972   84.2807    9.1930 C.3     1  UNL1        0.0463
     23 C          63.1487   84.9786    7.8662 C.3     1  UNL1        0.0744
     24 N          62.0547   84.7638    6.8628 N.3     1  UNL1       -0.2702
     25 C          60.6471   85.1653    7.1903 C.3     1  UNL1        0.0897
     26 C          62.3683   84.1474    5.5317 C.3     1  UNL1        0.0897
     27 C          63.1943   89.7024   11.8901 C.3     1  UNL1        0.0216
     28 C          63.5727   89.9230   13.3247 C.3     1  UNL1        0.0217
     29 C          64.6405   90.9167   13.6745 C.3     1  UNL1        0.0792
     30 N          64.5370   92.3316   13.1871 N.am    1  UNL1       -0.2720
     31 C          65.3761   92.7899   12.0313 C.2     1  UNL1        0.4019
     32 O          66.3188   91.8335   11.3630 O.2     1  UNL1       -0.2264
     33 H          63.9183   92.9593   13.6257 H       1  UNL1        0.1527
     34 O          65.2727   94.2047   11.5439 O.3     1  UNL1       -0.4291
     35 C          66.5142   95.0233   11.3483 C.3     1  UNL1        0.2447
     36 C          66.9111   95.4668    9.9714 C.ar    1  UNL1        0.0714
     37 C          67.5140   94.6005    8.9056 C.ar    1  UNL1        0.1053
     38 N          67.7503   95.4527    7.6941 N.ar    1  UNL1       -0.2350
     39 C          67.2934   96.8458    8.0111 C.ar    1  UNL1        0.1343
     40 S          66.7748   96.8545    9.4186 S.2     1  UNL1       -0.0652
     41 C          65.8117   90.4957   14.5117 C.3     1  UNL1        0.0460
     42 C          66.8696   91.4942   14.8777 C.ar    1  UNL1       -0.0205
     43 C          68.1521   91.5465   14.1016 C.ar    1  UNL1       -0.0042
     44 C          69.2100   92.5450   14.4677 C.ar    1  UNL1       -0.0003
     45 C          68.9852   93.4911   15.6097 C.ar    1  UNL1       -0.0000
     46 C          67.7027   93.4388   16.3858 C.ar    1  UNL1       -0.0003
     47 C          66.6449   92.4403   16.0198 C.ar    1  UNL1       -0.0042
     48 C          60.7290   89.3714   11.1397 C.3     1  UNL1        0.0459
     49 C          60.1351   89.0200    9.8079 C.ar    1  UNL1       -0.0205
     50 C          60.3252   89.9373    8.6364 C.ar    1  UNL1       -0.0042
     51 C          59.7312   89.5859    7.3046 C.ar    1  UNL1       -0.0003
     52 C          58.9472   88.3172    7.1442 C.ar    1  UNL1       -0.0000
     53 C          58.7571   87.3999    8.3158 C.ar    1  UNL1       -0.0003
     54 C          59.3510   87.7513    9.6476 C.ar    1  UNL1       -0.0042
@<TRIPOS>BOND
     1    19    20    1
     2    20    21    1
     3    20    14    1
     4    14    15   ar
     5    15    16   ar
     6    16    13    1
     7    13     7    1
     8     7     8    1
     9     7     9   am
    10     9    10    2
    11     9    11   am
    12    11     6    1
    13     6    22    1
    14    22    23    1
    15    23    24    1
    16    24    25    1
    17    24    26    1
    18     6     2    1
    19     2     3    2
    20     2     4   am
    21     4     1    1
    22     1    27    1
    23    27    28    1
    24    29    28    1
    25    29    41    1
    26    41    42    1
    27    42    43   ar
    28    43    44   ar
    29    44    45   ar
    30    45    46   ar
    31    46    47   ar
    32    29    30    1
    33    30    31   am
    34    31    32    2
    35    31    34    1
    36    34    35    1
    37    35    36    1
    38    36    37   ar
    39    37    38   ar
    40    38    39   ar
    41    39    40   ar
    42     1    48    1
    43    48    49    1
    44    49    50   ar
    45    50    51   ar
    46    51    52   ar
    47    52    53   ar
    48    53    54   ar
    49    16    17   ar
    50    17    18   ar
    51    18    14   ar
    52    47    42   ar
    53    40    36   ar
    54    54    49   ar
    55    11    12    1
    56     4     5    1
    57    30    33    1
@<TRIPOS>MOLECULE
*****
 54 57 0 0 0
SMALL
GASTEIGER

@<TRIPOS>ATOM
      1 C          61.3856   88.7961   11.5908 C.3     1  UNL1        0.0760
      2 C          62.3655   86.6712   10.4617 C.2     1  UNL1        0.2404
      3 O          62.7794   87.4919    9.2764 O.2     1  UNL1       -0.2733
      4 N          61.6685   87.3233   11.6190 N.am    1  UNL1       -0.3043
      5 H          61.3968   86.7846   12.3970 H       1  UNL1        0.1494
      6 C          62.6484   85.1984   10.4899 C.3     1  UNL1        0.1511
      7 N          62.7668   82.2298   13.1212 N.am    1  UNL1       -0.2567
      8 C          63.2361   80.8077   13.2058 C.3     1  UNL1        0.1168
      9 C          62.9423   83.0030   11.8479 C.2     1  UNL1        0.3046
     10 O          63.5871   82.3541   10.6592 O.2     1  UNL1       -0.2526
     11 N          62.4729   84.4252   11.7633 N.am    1  UNL1       -0.2824
     12 H          62.0496   84.8511   12.5435 H       1  UNL1        0.1514
     13 C          62.1219   82.8788   14.3099 C.3     1  UNL1        0.1413
     14 C          63.1667   86.0014   16.3649 C.ar    1  UNL1        0.0875
     15 N          62.1391   84.9919   15.9468 N.ar    1  UNL1       -0.2453
     16 C          62.7859   84.0452   14.9798 C.ar    1  UNL1        0.0858
     17 C          64.2134   84.4696   14.8001 C.ar    1  UNL1        0.0530
     18 S          64.4488   85.6786   15.6561 S.2     1  UNL1       -0.0705
     19 C          62.6493   86.8507   18.7651 C.3     1  UNL1        0.0069
     20 C          62.9504   87.1348   17.3234 C.3     1  UNL1        0.0465
     21 C          63.0351   88.5523   16.8402 C.3     1  UNL1        0.0069
     22 C          63.1068   84.4988    9.2448 C.3     1  UNL1        0.0463
     23 C          63.1136   85.2281    7.9340 C.3     1  UNL1        0.0744
     24 N          62.1386   84.8481    6.8593 N.3     1  UNL1       -0.2702
     25 C          60.6649   84.8840    7.1368 C.3     1  UNL1        0.0897
     26 C          62.6373   84.4323    5.5071 C.3     1  UNL1        0.0897
     27 C          62.3490   89.7571   12.2218 C.3     1  UNL1        0.0216
     28 C          63.2551   90.5852   11.3598 C.3     1  UNL1        0.0217
     29 C          64.3829   91.3555   11.9802 C.3     1  UNL1        0.0792
     30 N          64.2046   91.9931   13.3262 N.am    1  UNL1       -0.2720
     31 C          64.5168   91.2167   14.5711 C.2     1  UNL1        0.4019
     32 O          65.0075   89.8028   14.4700 O.2     1  UNL1       -0.2264
     33 H          63.8826   92.9210   13.3926 H       1  UNL1        0.1527
     34 O          64.3385   91.8542   15.9171 O.3     1  UNL1       -0.4291
     35 C          65.4738   92.6046   16.5480 C.3     1  UNL1        0.2447
     36 C          66.7951   92.6966   15.8439 C.ar    1  UNL1        0.0714
     37 C          67.0254   93.2544   14.4706 C.ar    1  UNL1        0.1053
     38 N          68.4907   93.1496   14.1675 N.ar    1  UNL1       -0.2350
     39 C          69.1660   92.5270   15.3534 C.ar    1  UNL1        0.1343
     40 S          68.1180   92.2471   16.3895 S.2     1  UNL1       -0.0652
     41 C          65.6890   91.4883   11.2546 C.3     1  UNL1        0.0460
     42 C          66.1401   92.8313   10.7618 C.ar    1  UNL1       -0.0205
     43 C          67.2836   92.9306    9.7962 C.ar    1  UNL1       -0.0042
     44 C          67.7347   94.2736    9.3034 C.ar    1  UNL1       -0.0003
     45 C          67.0422   95.5173    9.7763 C.ar    1  UNL1       -0.0000
     46 C          65.8987   95.4181   10.7419 C.ar    1  UNL1       -0.0003
     47 C          65.4476   94.0751   11.2346 C.ar    1  UNL1       -0.0042
     48 C          60.1391   89.3079   10.9316 C.3     1  UNL1        0.0459
     49 C          59.8075   88.8919    9.5291 C.ar    1  UNL1       -0.0205
     50 C          60.0712   89.8278    8.3870 C.ar    1  UNL1       -0.0042
     51 C          59.7395   89.4118    6.9845 C.ar    1  UNL1       -0.0003
     52 C          59.1442   88.0598    6.7241 C.ar    1  UNL1       -0.0000
     53 C          58.8805   87.1239    7.8663 C.ar    1  UNL1       -0.0003
     54 C          59.2121   87.5399    9.2688 C.ar    1  UNL1       -0.0042
@<TRIPOS>BOND
     1    19    20    1
     2    20    21    1
     3    20    14    1
     4    14    15   ar
     5    15    16   ar
     6    16    13    1
     7    13     7    1
     8     7     8    1
     9     7     9   am
    10     9    10    2
    11     9    11   am
    12    11     6    1
    13     6    22    1
    14    22    23    1
    15    23    24    1
    16    24    25    1
    17    24    26    1
    18     6     2    1
    19     2     3    2
    20     2     4   am
    21     4     1    1
    22     1    27    1
    23    27    28    1
    24    29    28    1
    25    29    41    1
    26    41    42    1
    27    42    43   ar
    28    43    44   ar
    29    44    45   ar
    30    45    46   ar
    31    46    47   ar
    32    29    30    1
    33    30    31   am
    34    31    32    2
    35    31    34    1
    36    34    35    1
    37    35    36    1
    38    36    37   ar
    39    37    38   ar
    40    38    39   ar
    41    39    40   ar
    42     1    48    1
    43    48    49    1
    44    49    50   ar
    45    50    51   ar
    46    51    52   ar
    47    52    53   ar
    48    53    54   ar
    49    16    17   ar
    50    17    18   ar
    51    18    14   ar
    52    47    42   ar
    53    40    36   ar
    54    54    49   ar
    55    11    12    1
    56     4     5    1
    57    30    33    1
@<TRIPOS>MOLECULE
*****
 54 57 0 0 0
SMALL
GASTEIGER

@<TRIPOS>ATOM
      1 C          62.5309   86.7559   11.5339 C.3     1  UNL1        0.0760
      2 C          61.0255   87.7332    9.6553 C.2     1  UNL1        0.2404
      3 O          60.7784   88.9553   10.4891 O.2     1  UNL1       -0.2733
      4 N          61.9018   86.6334   10.1777 N.am    1  UNL1       -0.3043
      5 H          62.0640   85.8313    9.6305 H       1  UNL1        0.1494
      6 C          60.3964   87.6107    8.2992 C.3     1  UNL1        0.1511
      7 N          59.1484   90.4427    5.8148 N.am    1  UNL1       -0.2567
      8 C          57.8668   90.9414    5.2158 C.3     1  UNL1        0.1168
      9 C          59.1316   89.2761    6.7574 C.2     1  UNL1        0.3046
     10 O          57.8332   88.6081    7.1011 O.2     1  UNL1       -0.2526
     11 N          60.4132   88.7774    7.3565 N.am    1  UNL1       -0.2824
     12 H          61.2654   89.2158    7.1309 H       1  UNL1        0.1514
     13 C          60.4467   91.1106    5.4712 C.3     1  UNL1        0.1413
     14 C          61.5412   92.7230    2.1143 C.ar    1  UNL1        0.0875
     15 N          61.8415   91.8996    3.3317 N.ar    1  UNL1       -0.2453
     16 C          60.5960   91.8328    4.1649 C.ar    1  UNL1        0.0858
     17 C          59.5259   92.6148    3.4625 C.ar    1  UNL1        0.0530
     18 S          60.1100   93.1651    2.1952 S.2     1  UNL1       -0.0705
     19 C          63.9724   93.1384    1.2978 C.3     1  UNL1        0.0069
     20 C          62.5031   93.0474    1.0100 C.3     1  UNL1        0.0465
     21 C          61.9957   93.2808   -0.3821 C.3     1  UNL1        0.0069
     22 C          59.7506   86.3216    7.8856 C.3     1  UNL1        0.0463
     23 C          60.1776   85.6413    6.6188 C.3     1  UNL1        0.0744
     24 N          61.4906   84.9184    6.5615 N.3     1  UNL1       -0.2702
     25 C          62.5100   85.1280    7.6417 C.3     1  UNL1        0.0897
     26 C          61.7843   83.9858    5.4239 C.3     1  UNL1        0.0897
     27 C          63.1296   88.0610   11.9678 C.3     1  UNL1        0.0216
     28 C          62.8441   88.5980   13.3390 C.3     1  UNL1        0.0217
     29 C          63.9766   88.9416   14.2607 C.3     1  UNL1        0.0792
     30 N          64.8640   90.1117   13.9547 N.am    1  UNL1       -0.2720
     31 C          64.7107   91.3905   14.7237 C.2     1  UNL1        0.4019
     32 O          63.6701   91.4992   15.7985 O.2     1  UNL1       -0.2264
     33 H          65.5469   90.0403   13.2493 H       1  UNL1        0.1527
     34 O          65.5980   92.5606   14.4177 O.3     1  UNL1       -0.4291
     35 C          66.6921   92.4263   13.4004 C.3     1  UNL1        0.2447
     36 C          66.6045   93.1722   12.1019 C.ar    1  UNL1        0.0714
     37 C          66.2098   94.6098   11.9358 C.ar    1  UNL1        0.1053
     38 N          66.2577   94.9376   10.4728 N.ar    1  UNL1       -0.2350
     39 C          66.6820   93.7026    9.7348 C.ar    1  UNL1        0.1343
     40 S          66.8964   92.6116   10.7416 S.2     1  UNL1       -0.0652
     41 C          64.2217   88.1153   15.4883 C.3     1  UNL1        0.0460
     42 C          64.2027   86.6179   15.4006 C.ar    1  UNL1       -0.0205
     43 C          65.3010   85.8949   14.6788 C.ar    1  UNL1       -0.0042
     44 C          65.2819   84.3976   14.5911 C.ar    1  UNL1       -0.0003
     45 C          64.1646   83.6234   15.2252 C.ar    1  UNL1       -0.0000
     46 C          63.0663   84.3464   15.9470 C.ar    1  UNL1       -0.0003
     47 C          63.0854   85.8436   16.0347 C.ar    1  UNL1       -0.0042
     48 C          62.5613   85.5733   12.4562 C.3     1  UNL1        0.0459
     49 C          62.8930   84.2123   11.9198 C.ar    1  UNL1       -0.0205
     50 C          63.8351   84.0719   10.7611 C.ar    1  UNL1       -0.0042
     51 C          64.1668   82.7109   10.2248 C.ar    1  UNL1       -0.0003
     52 C          63.5563   81.4903   10.8471 C.ar    1  UNL1       -0.0000
     53 C          62.6142   81.6306   12.0059 C.ar    1  UNL1       -0.0003
     54 C          62.2825   82.9916   12.5422 C.ar    1  UNL1       -0.0042
@<TRIPOS>BOND
     1    19    20    1
     2    20    21    1
     3    20    14    1
     4    14    15   ar
     5    15    16   ar
     6    16    13    1
     7    13     7    1
     8     7     8    1
     9     7     9   am
    10     9    10    2
    11     9    11   am
    12    11     6    1
    13     6    22    1
    14    22    23    1
    15    23    24    1
    16    24    25    1
    17    24    26    1
    18     6     2    1
    19     2     3    2
    20     2     4   am
    21     4     1    1
    22     1    27    1
    23    27    28    1
    24    29    28    1
    25    29    41    1
    26    41    42    1
    27    42    43   ar
    28    43    44   ar
    29    44    45   ar
    30    45    46   ar
    31    46    47   ar
    32    29    30    1
    33    30    31   am
    34    31    32    2
    35    31    34    1
    36    34    35    1
    37    35    36    1
    38    36    37   ar
    39    37    38   ar
    40    38    39   ar
    41    39    40   ar
    42     1    48    1
    43    48    49    1
    44    49    50   ar
    45    50    51   ar
    46    51    52   ar
    47    52    53   ar
    48    53    54   ar
    49    16    17   ar
    50    17    18   ar
    51    18    14   ar
    52    47    42   ar
    53    40    36   ar
    54    54    49   ar
    55    11    12    1
    56     4     5    1
    57    30    33    1
@<TRIPOS>MOLECULE
*****
 54 57 0 0 0
SMALL
GASTEIGER

@<TRIPOS>ATOM
      1 C          60.7816   88.8000    8.9872 C.3     1  UNL1        0.0760
      2 C          61.4559   86.6511   10.2826 C.2     1  UNL1        0.2404
      3 O          60.4477   86.9752   11.3450 O.2     1  UNL1       -0.2733
      4 N          61.6228   87.5635    9.1037 N.am    1  UNL1       -0.3043
      5 H          62.2845   87.3508    8.4064 H       1  UNL1        0.1494
      6 C          62.2971   85.4147   10.3991 C.3     1  UNL1        0.1511
      7 N          62.9182   82.4660   12.9817 N.am    1  UNL1       -0.2567
      8 C          63.5563   81.1091   13.0214 C.3     1  UNL1        0.1168
      9 C          62.9267   83.2619   11.7103 C.2     1  UNL1        0.3046
     10 O          63.5733   82.7009   10.4786 O.2     1  UNL1       -0.2526
     11 N          62.2885   84.6188   11.6706 N.am    1  UNL1       -0.2824
     12 H          61.8641   84.9871   12.4790 H       1  UNL1        0.1514
     13 C          62.2715   83.0271   14.2134 C.3     1  UNL1        0.1413
     14 C          63.2056   86.1104   16.3781 C.ar    1  UNL1        0.0875
     15 N          62.2182   85.0724   15.9335 N.ar    1  UNL1       -0.2453
     16 C          62.8924   84.1951   14.9207 C.ar    1  UNL1        0.0858
     17 C          64.2964   84.6909   14.7393 C.ar    1  UNL1        0.0530
     18 S          64.4900   85.8746   15.6400 S.2     1  UNL1       -0.0705
     19 C          63.0039   88.6333   16.9650 C.3     1  UNL1        0.0069
     20 C          62.9529   87.1940   17.3842 C.3     1  UNL1        0.0465
     21 C          62.6493   86.8382   18.8094 C.3     1  UNL1        0.0069
     22 C          63.1468   84.9741    9.2442 C.3     1  UNL1        0.0463
     23 C          62.9515   85.5912    7.8910 C.3     1  UNL1        0.0744
     24 N          61.9295   85.0264    6.9496 N.3     1  UNL1       -0.2702
     25 C          62.3688   84.2557    5.7400 C.3     1  UNL1        0.0897
     26 C          60.4680   85.2323    7.2177 C.3     1  UNL1        0.0897
     27 C          61.1955   90.0578    9.6918 C.3     1  UNL1        0.0216
     28 C          61.9211   89.9793   11.0023 C.3     1  UNL1        0.0217
     29 C          63.1130   90.8547   11.2532 C.3     1  UNL1        0.0792
     30 N          63.5785   91.1035   12.6573 N.am    1  UNL1       -0.2720
     31 C          63.8902   89.9468   13.5601 C.2     1  UNL1        0.4019
     32 O          63.7364   88.5415   13.0589 O.2     1  UNL1       -0.2264
     33 H          63.6795   92.0259   12.9863 H       1  UNL1        0.1527
     34 O          64.3557   90.1955   14.9642 O.3     1  UNL1       -0.4291
     35 C          64.8132   91.5648   15.3712 C.3     1  UNL1        0.2447
     36 C          66.2184   92.0029   15.0822 C.ar    1  UNL1        0.0714
     37 C          66.9503   91.8190   13.7859 C.ar    1  UNL1        0.1053
     38 N          68.3227   92.4041   13.9413 N.ar    1  UNL1       -0.2350
     39 C          68.4390   92.9497   15.3337 C.ar    1  UNL1        0.1343
     40 S          67.1385   92.7017   16.0388 S.2     1  UNL1       -0.0652
     41 C          63.8395   91.4814   10.1002 C.3     1  UNL1        0.0460
     42 C          65.0388   92.3469   10.3504 C.ar    1  UNL1       -0.0205
     43 C          64.8672   93.7116   10.9487 C.ar    1  UNL1       -0.0042
     44 C          66.0665   94.5770   11.1989 C.ar    1  UNL1       -0.0003
     45 C          67.4374   94.0777   10.8508 C.ar    1  UNL1       -0.0000
     46 C          67.6091   92.7129   10.2525 C.ar    1  UNL1       -0.0003
     47 C          66.4098   91.8475   10.0023 C.ar    1  UNL1       -0.0042
     48 C          59.5265   88.7785    8.1661 C.3     1  UNL1        0.0459
     49 C          59.3973   89.6747    6.9701 C.ar    1  UNL1       -0.0205
     50 C          60.6258   90.1487    6.2519 C.ar    1  UNL1       -0.0042
     51 C          60.4967   91.0448    5.0560 C.ar    1  UNL1       -0.0003
     52 C          59.1389   91.4669    4.5782 C.ar    1  UNL1       -0.0000
     53 C          57.9102   90.9928    5.2964 C.ar    1  UNL1       -0.0003
     54 C          58.0394   90.0967    6.4924 C.ar    1  UNL1       -0.0042
@<TRIPOS>BOND
     1    19    20    1
     2    20    21    1
     3    20    14    1
     4    14    15   ar
     5    15    16   ar
     6    16    13    1
     7    13     7    1
     8     7     8    1
     9     7     9   am
    10     9    10    2
    11     9    11   am
    12    11     6    1
    13     6    22    1
    14    22    23    1
    15    23    24    1
    16    24    25    1
    17    24    26    1
    18     6     2    1
    19     2     3    2
    20     2     4   am
    21     4     1    1
    22     1    27    1
    23    27    28    1
    24    29    28    1
    25    29    41    1
    26    41    42    1
    27    42    43   ar
    28    43    44   ar
    29    44    45   ar
    30    45    46   ar
    31    46    47   ar
    32    29    30    1
    33    30    31   am
    34    31    32    2
    35    31    34    1
    36    34    35    1
    37    35    36    1
    38    36    37   ar
    39    37    38   ar
    40    38    39   ar
    41    39    40   ar
    42     1    48    1
    43    48    49    1
    44    49    50   ar
    45    50    51   ar
    46    51    52   ar
    47    52    53   ar
    48    53    54   ar
    49    16    17   ar
    50    17    18   ar
    51    18    14   ar
    52    47    42   ar
    53    40    36   ar
    54    54    49   ar
    55    11    12    1
    56     4     5    1
    57    30    33    1
@<TRIPOS>MOLECULE
*****
 54 57 0 0 0
SMALL
GASTEIGER

@<TRIPOS>ATOM
      1 C          61.6870   86.2800   11.3799 C.3     1  UNL1        0.0760
      2 C          62.4264   88.7652   11.2156 C.2     1  UNL1        0.2404
      3 O          62.8759   88.5380    9.8027 O.2     1  UNL1       -0.2733
      4 N          61.8319   87.6362   12.0042 N.am    1  UNL1       -0.3043
      5 H          61.5368   87.7853   12.9316 H       1  UNL1        0.1494
      6 C          62.5713   90.1214   11.8398 C.3     1  UNL1        0.1511
      7 N          65.5815   91.5520   13.9943 N.am    1  UNL1       -0.2567
      8 C          65.8721   91.9543   15.4098 C.3     1  UNL1        0.1168
      9 C          64.2217   91.0379   13.6248 C.2     1  UNL1        0.3046
     10 O          63.1525   90.9260   14.6709 O.2     1  UNL1       -0.2526
     11 N          63.9311   90.6356   12.2093 N.am    1  UNL1       -0.2824
     12 H          64.6329   90.7090   11.5227 H       1  UNL1        0.1514
     13 C          66.6507   91.6638   12.9483 C.3     1  UNL1        0.1413
     14 C          67.0989   94.2936   10.1288 C.ar    1  UNL1        0.0875
     15 N          67.2632   92.9000   10.6587 N.ar    1  UNL1       -0.2453
     16 C          66.6954   92.8618   12.0465 C.ar    1  UNL1        0.0858
     17 C          66.1801   94.2318   12.3744 C.ar    1  UNL1        0.0530
     18 S          66.4295   95.1168   11.1892 S.2     1  UNL1       -0.0705
     19 C          67.1873   96.1716    8.3357 C.3     1  UNL1        0.0069
     20 C          67.5285   94.7789    8.7760 C.3     1  UNL1        0.0465
     21 C          68.2992   93.8715    7.8636 C.3     1  UNL1        0.0069
     22 C          61.3564   90.9634   12.0947 C.3     1  UNL1        0.0463
     23 C          60.1720   90.8677   11.1792 C.3     1  UNL1        0.0744
     24 N          59.4228   89.5743   11.0548 N.3     1  UNL1       -0.2702
     25 C          59.3893   88.8501    9.7416 C.3     1  UNL1        0.0897
     26 C          58.7069   89.0049   12.2437 C.3     1  UNL1        0.0897
     27 C          62.4075   85.1030   11.9676 C.3     1  UNL1        0.0216
     28 C          63.8694   85.2024   12.2886 C.3     1  UNL1        0.0217
     29 C          64.4231   84.4960   13.4905 C.3     1  UNL1        0.0792
     30 N          64.2926   83.0066   13.6113 N.am    1  UNL1       -0.2720
     31 C          63.1344   82.4133   14.3575 C.2     1  UNL1        0.4019
     32 O          62.1069   83.3093   14.9828 O.2     1  UNL1       -0.2264
     33 H          64.9670   82.4185   13.2009 H       1  UNL1        0.1527
     34 O          63.0040   80.9238   14.4782 O.3     1  UNL1       -0.4291
     35 C          62.1747   80.1609   13.4882 C.3     1  UNL1        0.2447
     36 C          62.5630   80.1444   12.0394 C.ar    1  UNL1        0.0714
     37 C          62.9605   81.3359   11.2195 C.ar    1  UNL1        0.1053
     38 N          63.2651   80.8614    9.8295 N.ar    1  UNL1       -0.2350
     39 C          63.0558   79.3766    9.7903 C.ar    1  UNL1        0.1343
     40 S          62.6219   78.9335   11.1561 S.2     1  UNL1       -0.0652
     41 C          65.1072   85.2791   14.5716 C.3     1  UNL1        0.0460
     42 C          64.3005   86.1335   15.5039 C.ar    1  UNL1       -0.0205
     43 C          63.5953   85.5100   16.6718 C.ar    1  UNL1       -0.0042
     44 C          62.7886   86.3645   17.6040 C.ar    1  UNL1       -0.0003
     45 C          62.6871   87.8424   17.3685 C.ar    1  UNL1       -0.0000
     46 C          63.3923   88.4659   16.2006 C.ar    1  UNL1       -0.0003
     47 C          64.1990   87.6114   15.2684 C.ar    1  UNL1       -0.0042
     48 C          60.8215   86.1008   10.1679 C.3     1  UNL1        0.0459
     49 C          61.4223   85.6139    8.8827 C.ar    1  UNL1       -0.0205
     50 C          60.5566   85.4337    7.6710 C.ar    1  UNL1       -0.0042
     51 C          61.1574   84.9468    6.3857 C.ar    1  UNL1       -0.0003
     52 C          62.6238   84.6400    6.3121 C.ar    1  UNL1       -0.0000
     53 C          63.4896   84.8202    7.5238 C.ar    1  UNL1       -0.0003
     54 C          62.8888   85.3071    8.8091 C.ar    1  UNL1       -0.0042
@<TRIPOS>BOND
     1    19    20    1
     2    20    21    1
     3    20    14    1
     4    14    15   ar
     5    15    16   ar
     6    16    13    1
     7    13     7    1
     8     7     8    1
     9     7     9   am
    10     9    10    2
    11     9    11   am
    12    11     6    1
    13     6    22    1
    14    22    23    1
    15    23    24    1
    16    24    25    1
    17    24    26    1
    18     6     2    1
    19     2     3    2
    20     2     4   am
    21     4     1    1
    22     1    27    1
    23    27    28    1
    24    29    28    1
    25    29    41    1
    26    41    42    1
    27    42    43   ar
    28    43    44   ar
    29    44    45   ar
    30    45    46   ar
    31    46    47   ar
    32    29    30    1
    33    30    31   am
    34    31    32    2
    35    31    34    1
    36    34    35    1
    37    35    36    1
    38    36    37   ar
    39    37    38   ar
    40    38    39   ar
    41    39    40   ar
    42     1    48    1
    43    48    49    1
    44    49    50   ar
    45    50    51   ar
    46    51    52   ar
    47    52    53   ar
    48    53    54   ar
    49    16    17   ar
    50    17    18   ar
    51    18    14   ar
    52    47    42   ar
    53    40    36   ar
    54    54    49   ar
    55    11    12    1
    56     4     5    1
    57    30    33    1
@<TRIPOS>MOLECULE
*****
 54 57 0 0 0
SMALL
GASTEIGER

@<TRIPOS>ATOM
      1 C          61.7960   89.9208   10.8530 C.3     1  UNL1        0.0760
      2 C          61.5811   87.4095   11.4834 C.2     1  UNL1        0.2404
      3 O          60.2803   87.6941   12.1739 O.2     1  UNL1       -0.2733
      4 N          62.3390   88.5229   10.8229 N.am    1  UNL1       -0.3043
      5 H          63.1928   88.3361   10.3697 H       1  UNL1        0.1494
      6 C          62.1241   86.0116   11.4533 C.3     1  UNL1        0.1511
      7 N          63.2913   84.9325   15.0896 N.am    1  UNL1       -0.2567
      8 C          64.2011   85.4177   16.1791 C.3     1  UNL1        0.1168
      9 C          63.1626   85.7146   13.8162 C.2     1  UNL1        0.3046
     10 O          63.9436   86.9820   13.6322 O.2     1  UNL1       -0.2526
     11 N          62.2528   85.2294   12.7267 N.am    1  UNL1       -0.2824
     12 H          61.7402   84.3976   12.8475 H       1  UNL1        0.1514
     13 C          62.5103   83.6652   15.2736 C.3     1  UNL1        0.1413
     14 C          62.9295   81.4471   12.1160 C.ar    1  UNL1        0.0875
     15 N          63.1003   82.7549   12.8306 N.ar    1  UNL1       -0.2453
     16 C          62.5453   82.6023   14.2157 C.ar    1  UNL1        0.0858
     17 C          62.0315   81.2002   14.3572 C.ar    1  UNL1        0.0530
     18 S          62.2689   80.4862   13.0596 S.2     1  UNL1       -0.0705
     19 C          62.9288   79.8673   10.0535 C.3     1  UNL1        0.0069
     20 C          63.3461   81.1520   10.7056 C.3     1  UNL1        0.0465
     21 C          64.1800   82.1417    9.9472 C.3     1  UNL1        0.0069
     22 C          62.5384   85.3958   10.1498 C.3     1  UNL1        0.0463
     23 C          61.6316   85.4815    8.9580 C.3     1  UNL1        0.0744
     24 N          62.1308   85.0704    7.6046 N.3     1  UNL1       -0.2702
     25 C          61.1590   84.8349    6.4865 C.3     1  UNL1        0.0897
     26 C          63.6018   84.8946    7.3693 C.3     1  UNL1        0.0897
     27 C          62.6071   91.0276   11.4588 C.3     1  UNL1        0.0216
     28 C          63.9203   91.4165   10.8469 C.3     1  UNL1        0.0217
     29 C          64.9868   92.0432   11.6953 C.3     1  UNL1        0.0792
     30 N          64.7086   92.3641   13.1339 N.am    1  UNL1       -0.2720
     31 C          64.6988   91.2685   14.1585 C.2     1  UNL1        0.4019
     32 O          64.9672   89.8520   13.7444 O.2     1  UNL1       -0.2264
     33 H          64.5324   93.2938   13.4057 H       1  UNL1        0.1527
     34 O          64.4206   91.5894   15.5971 O.3     1  UNL1       -0.4291
     35 C          65.3031   92.5519   16.3351 C.3     1  UNL1        0.2447
     36 C          66.7284   92.7416   15.9076 C.ar    1  UNL1        0.0714
     37 C          67.2232   93.7448   14.9083 C.ar    1  UNL1        0.1053
     38 N          68.7097   93.5846   14.7875 N.ar    1  UNL1       -0.2350
     39 C          69.1337   92.4822   15.7123 C.ar    1  UNL1        0.1343
     40 S          67.9092   91.9613   16.4045 S.2     1  UNL1       -0.0652
     41 C          66.3315   92.3489   11.1052 C.3     1  UNL1        0.0460
     42 C          66.6179   93.7168   10.5602 C.ar    1  UNL1       -0.0205
     43 C          66.1573   94.9333   11.3072 C.ar    1  UNL1       -0.0042
     44 C          66.4438   96.3011   10.7623 C.ar    1  UNL1       -0.0003
     45 C          67.1909   96.4524    9.4704 C.ar    1  UNL1       -0.0000
     46 C          67.6515   95.2360    8.7234 C.ar    1  UNL1       -0.0003
     47 C          67.3650   93.8682    9.2684 C.ar    1  UNL1       -0.0042
     48 C          60.4417   90.2119   10.2774 C.3     1  UNL1        0.0459
     49 C          59.9489   89.4377    9.0909 C.ar    1  UNL1       -0.0205
     50 C          59.3980   88.0546    9.2741 C.ar    1  UNL1       -0.0042
     51 C          58.9052   87.2804    8.0876 C.ar    1  UNL1       -0.0003
     52 C          58.9633   87.8892    6.7180 C.ar    1  UNL1       -0.0000
     53 C          59.5143   89.2723    6.5348 C.ar    1  UNL1       -0.0003
     54 C          60.0071   90.0465    7.7212 C.ar    1  UNL1       -0.0042
@<TRIPOS>BOND
     1    19    20    1
     2    20    21    1
     3    20    14    1
     4    14    15   ar
     5    15    16   ar
     6    16    13    1
     7    13     7    1
     8     7     8    1
     9     7     9   am
    10     9    10    2
    11     9    11   am
    12    11     6    1
    13     6    22    1
    14    22    23    1
    15    23    24    1
    16    24    25    1
    17    24    26    1
    18     6     2    1
    19     2     3    2
    20     2     4   am
    21     4     1    1
    22     1    27    1
    23    27    28    1
    24    29    28    1
    25    29    41    1
    26    41    42    1
    27    42    43   ar
    28    43    44   ar
    29    44    45   ar
    30    45    46   ar
    31    46    47   ar
    32    29    30    1
    33    30    31   am
    34    31    32    2
    35    31    34    1
    36    34    35    1
    37    35    36    1
    38    36    37   ar
    39    37    38   ar
    40    38    39   ar
    41    39    40   ar
    42     1    48    1
    43    48    49    1
    44    49    50   ar
    45    50    51   ar
    46    51    52   ar
    47    52    53   ar
    48    53    54   ar
    49    16    17   ar
    50    17    18   ar
    51    18    14   ar
    52    47    42   ar
    53    40    36   ar
    54    54    49   ar
    55    11    12    1
    56     4     5    1
    57    30    33    1
@<TRIPOS>MOLECULE
*****
 54 57 0 0 0
SMALL
GASTEIGER

@<TRIPOS>ATOM
      1 C          62.7242   86.4337   12.0562 C.3     1  UNL1        0.0760
      2 C          62.7319   88.8433   11.0846 C.2     1  UNL1        0.2404
      3 O          62.8229   88.2831    9.6961 O.2     1  UNL1       -0.2733
      4 N          62.6825   87.9186   12.2647 N.am    1  UNL1       -0.3043
      5 H          62.6228   88.2862   13.1760 H       1  UNL1        0.1494
      6 C          62.6903   90.3281   11.2931 C.3     1  UNL1        0.1511
      7 N          65.7153   92.3943   12.8197 N.am    1  UNL1       -0.2567
      8 C          66.1848   92.9010   14.1512 C.3     1  UNL1        0.1168
      9 C          64.4376   91.6146   12.7221 C.2     1  UNL1        0.3046
     10 O          63.6294   91.3416   13.9560 O.2     1  UNL1       -0.2526
     11 N          63.9681   91.1079   11.3907 N.am    1  UNL1       -0.2824
     12 H          64.4984   91.2871   10.5808 H       1  UNL1        0.1514
     13 C          66.5234   92.6673   11.5859 C.3     1  UNL1        0.1413
     14 C          66.4362   95.7778    9.2657 C.ar    1  UNL1        0.0875
     15 N          66.5174   94.2932    9.4641 N.ar    1  UNL1       -0.2453
     16 C          66.4698   94.0192   10.9381 C.ar    1  UNL1        0.0858
     17 C          66.3592   95.3346   11.6507 C.ar    1  UNL1        0.0530
     18 S          66.3384   96.4214   10.6171 S.2     1  UNL1       -0.0705
     19 C          67.7564   96.8485    7.3008 C.3     1  UNL1        0.0069
     20 C          66.4503   96.4931    7.9473 C.3     1  UNL1        0.0465
     21 C          65.1585   96.8532    7.2755 C.3     1  UNL1        0.0069
     22 C          61.3711   91.0333   11.4040 C.3     1  UNL1        0.0463
     23 C          60.2938   90.7722   10.3934 C.3     1  UNL1        0.0744
     24 N          59.6964   89.4018   10.2709 N.3     1  UNL1       -0.2702
     25 C          59.3127   88.6380   11.5036 C.3     1  UNL1        0.0897
     26 C          59.4828   88.7950    8.9158 C.3     1  UNL1        0.0897
     27 C          63.8550   85.6281   12.6237 C.3     1  UNL1        0.0216
     28 C          63.7752   84.1303   12.6385 C.3     1  UNL1        0.0217
     29 C          62.9526   83.4333   13.6814 C.3     1  UNL1        0.0792
     30 N          62.1640   84.2351   14.6740 N.am    1  UNL1       -0.2720
     31 C          62.7230   84.4952   16.0414 C.2     1  UNL1        0.4019
     32 O          64.0706   83.9535   16.4163 O.2     1  UNL1       -0.2264
     33 H          61.2795   84.5906   14.4279 H       1  UNL1        0.1527
     34 O          61.9344   85.2970   17.0340 O.3     1  UNL1       -0.4291
     35 C          62.5171   86.5495   17.6186 C.3     1  UNL1        0.2447
     36 C          63.1292   87.5825   16.7196 C.ar    1  UNL1        0.0714
     37 C          64.0445   87.3132   15.5622 C.ar    1  UNL1        0.1053
     38 N          64.4145   88.6305   14.9475 N.ar    1  UNL1       -0.2350
     39 C          63.7279   89.7140   15.7250 C.ar    1  UNL1        0.1343
     40 S          62.9335   89.0663   16.8202 S.2     1  UNL1       -0.0652
     41 C          62.9187   81.9345   13.7317 C.3     1  UNL1        0.0460
     42 C          62.9066   81.1414   12.4585 C.ar    1  UNL1       -0.0205
     43 C          62.5726   79.6794   12.4888 C.ar    1  UNL1       -0.0042
     44 C          62.5606   78.8864   11.2157 C.ar    1  UNL1       -0.0003
     45 C          62.8824   79.5554    9.9123 C.ar    1  UNL1       -0.0000
     46 C          63.2164   81.0174    9.8820 C.ar    1  UNL1       -0.0003
     47 C          63.2285   81.8104   11.1551 C.ar    1  UNL1       -0.0042
     48 C          61.6348   85.7545   11.2802 C.3     1  UNL1        0.0459
     49 C          61.7921   85.5311    9.8053 C.ar    1  UNL1       -0.0205
     50 C          60.6700   85.8741    8.8709 C.ar    1  UNL1       -0.0042
     51 C          60.8273   85.6507    7.3960 C.ar    1  UNL1       -0.0003
     52 C          62.1067   85.0842    6.8555 C.ar    1  UNL1       -0.0000
     53 C          63.2289   84.7411    7.7899 C.ar    1  UNL1       -0.0003
     54 C          63.0716   84.9645    9.2648 C.ar    1  UNL1       -0.0042
@<TRIPOS>BOND
     1    19    20    1
     2    20    21    1
     3    20    14    1
     4    14    15   ar
     5    15    16   ar
     6    16    13    1
     7    13     7    1
     8     7     8    1
     9     7     9   am
    10     9    10    2
    11     9    11   am
    12    11     6    1
    13     6    22    1
    14    22    23    1
    15    23    24    1
    16    24    25    1
    17    24    26    1
    18     6     2    1
    19     2     3    2
    20     2     4   am
    21     4     1    1
    22     1    27    1
    23    27    28    1
    24    29    28    1
    25    29    41    1
    26    41    42    1
    27    42    43   ar
    28    43    44   ar
    29    44    45   ar
    30    45    46   ar
    31    46    47   ar
    32    29    30    1
    33    30    31   am
    34    31    32    2
    35    31    34    1
    36    34    35    1
    37    35    36    1
    38    36    37   ar
    39    37    38   ar
    40    38    39   ar
    41    39    40   ar
    42     1    48    1
    43    48    49    1
    44    49    50   ar
    45    50    51   ar
    46    51    52   ar
    47    52    53   ar
    48    53    54   ar
    49    16    17   ar
    50    17    18   ar
    51    18    14   ar
    52    47    42   ar
    53    40    36   ar
    54    54    49   ar
    55    11    12    1
    56     4     5    1
    57    30    33    1
