@<TRIPOS>MOLECULE
*****
 36 38 0 0 0
SMALL
GASTEIGER

@<TRIPOS>ATOM
      1 P          64.1148   90.7448   13.0333 P.3     1  UNL1        0.2667
      2 O          63.5216   91.2797   11.7636 O.2     1  UNL1       -0.2827
      3 N          64.6564   92.1065   13.3537 N.3     1  UNL1       -0.2332
      4 H          63.9802   92.7831   12.9996 H       1  UNL1        0.1318
      5 C          65.9993   92.5219   12.8302 C.3     1  UNL1        0.1604
      6 C          66.0921   93.4669   11.6692 C.3     1  UNL1        0.0295
      7 C          67.2495   91.9921   13.4678 C.2     1  UNL1        0.3317
      8 O          68.5021   91.8468   12.6557 O.2     1  UNL1       -0.2486
      9 O          67.2468   91.6075   14.9177 O.3     1  UNL1       -0.4476
     10 C          68.7205   93.5442   15.8274 C.3     1  UNL1        0.0513
     11 C          67.5320   92.6398   15.9679 C.3     1  UNL1        0.2086
     12 N          64.7081   90.2100   14.3029 N.3     1  UNL1       -0.2332
     13 H          65.5775   90.7199   14.4594 H       1  UNL1        0.1318
     14 C          63.9287   90.2802   15.5826 C.3     1  UNL1        0.1604
     15 C          64.0345   91.4926   16.4596 C.3     1  UNL1        0.0295
     16 C          63.0435   89.1382   15.9854 C.2     1  UNL1        0.3317
     17 O          61.5747   89.3637   16.1898 O.2     1  UNL1       -0.2486
     18 O          63.6272   87.7706   16.1837 O.3     1  UNL1       -0.4476
     19 C          62.8410   86.7173   16.9064 C.3     1  UNL1        0.2086
     20 C          62.6925   86.7831   18.3975 C.3     1  UNL1        0.0513
     21 C          63.5732   89.3832   12.7128 C.3     1  UNL1        0.2934
     22 O          62.1126   89.2068   12.4207 O.3     1  UNL1       -0.4647
     23 C          61.6774   88.4102   11.2265 C.ar    1  UNL1        0.1401
     24 C          60.9099   89.0735   10.1216 C.ar    1  UNL1        0.0324
     25 C          60.4747   88.2771    8.9274 C.ar    1  UNL1       -0.0231
     26 C          59.7071   88.9404    7.8226 C.3     1  UNL1        0.0308
     27 C          60.8070   86.8170    8.8381 C.ar    1  UNL1       -0.0292
     28 C          60.3719   86.0205    7.6440 C.3     1  UNL1        0.0304
     29 C          61.5746   86.1536    9.9430 C.ar    1  UNL1       -0.0171
     30 C          62.0098   86.9502   11.1372 C.ar    1  UNL1        0.0479
     31 C          62.7483   86.0304   12.0639 C.ar    1  UNL1        0.0868
     32 N          63.4736   85.9543   13.3746 N.ar    1  UNL1       -0.2365
     33 C          63.9431   84.5422   13.5632 C.ar    1  UNL1        0.1342
     34 S          63.5079   83.7456   12.3690 S.2     1  UNL1       -0.0685
     35 C          62.7695   84.6654   11.4423 C.ar    1  UNL1        0.0308
     36 C          62.0441   84.7415   10.1316 C.3     1  UNL1        0.0606
@<TRIPOS>BOND
     1    10    11    1
     2    11     9    1
     3     9     7    1
     4     7     8    2
     5     7     5    1
     6     5     6    1
     7     5     3    1
     8     3     1    1
     9     1     2    2
    10     1    21    1
    11    21    22    1
    12    22    23    1
    13    23    24   ar
    14    24    25   ar
    15    25    26    1
    16    25    27   ar
    17    27    28    1
    18    27    29   ar
    19    29    30   ar
    20    30    31    1
    21    31    32   ar
    22    32    33   ar
    23    33    34   ar
    24    34    35   ar
    25    35    36    1
    26     1    12    1
    27    12    14    1
    28    14    15    1
    29    14    16    1
    30    16    17    2
    31    16    18    1
    32    18    19    1
    33    19    20    1
    34    30    23   ar
    35    35    31   ar
    36    36    29    1
    37     3     4    1
    38    12    13    1
@<TRIPOS>MOLECULE
*****
 36 38 0 0 0
SMALL
GASTEIGER

@<TRIPOS>ATOM
      1 P          63.8311   90.3286   13.2724 P.3     1  UNL1        0.2667
      2 O          63.7137   88.8645   13.5768 O.2     1  UNL1       -0.2827
      3 N          64.8386   90.4767   14.3738 N.3     1  UNL1       -0.2332
      4 H          65.2295   89.5496   14.5419 H       1  UNL1        0.1318
      5 C          64.4174   91.0174   15.7080 C.3     1  UNL1        0.1604
      6 C          63.3930   90.2863   16.5240 C.3     1  UNL1        0.0295
      7 C          65.0206   92.2894   16.2261 C.2     1  UNL1        0.3317
      8 O          64.7049   92.7576   17.6156 O.2     1  UNL1       -0.2486
      9 O          65.9396   93.0930   15.3545 O.3     1  UNL1       -0.4476
     10 C          68.2688   92.1203   15.9696 C.3     1  UNL1        0.0513
     11 C          67.3680   93.3015   15.7622 C.3     1  UNL1        0.2086
     12 N          63.9485   91.7927   12.9680 N.3     1  UNL1       -0.2332
     13 H          64.2819   92.2446   13.8194 H       1  UNL1        0.1318
     14 C          64.8384   92.2580   11.8538 C.3     1  UNL1        0.1604
     15 C          64.4462   92.0101   10.4273 C.3     1  UNL1        0.0295
     16 C          66.1206   92.9711   12.1659 C.2     1  UNL1        0.3317
     17 O          67.3681   92.1851   12.4415 O.2     1  UNL1       -0.2486
     18 O          66.1553   94.4704   12.2025 O.3     1  UNL1       -0.4476
     19 C          66.4635   95.2441   10.9550 C.3     1  UNL1        0.2086
     20 C          67.1826   94.5796    9.8187 C.3     1  UNL1        0.0513
     21 C          62.8236   90.1804   12.1710 C.3     1  UNL1        0.2934
     22 O          61.7613   89.1254   12.2633 O.3     1  UNL1       -0.4647
     23 C          61.4121   88.3052   11.0569 C.ar    1  UNL1        0.1401
     24 C          60.6255   88.9172    9.9359 C.ar    1  UNL1        0.0324
     25 C          60.2762   88.0972    8.7296 C.ar    1  UNL1       -0.0231
     26 C          59.4896   88.7092    7.6086 C.3     1  UNL1        0.0308
     27 C          60.7136   86.6648    8.6441 C.ar    1  UNL1       -0.0292
     28 C          60.3644   85.8447    7.4378 C.3     1  UNL1        0.0304
     29 C          61.5002   86.0528    9.7651 C.ar    1  UNL1       -0.0171
     30 C          61.8495   86.8729   10.9715 C.ar    1  UNL1        0.0479
     31 C          62.6296   86.0038   11.9129 C.ar    1  UNL1        0.0868
     32 N          63.3275   85.9737   13.2403 N.ar    1  UNL1       -0.2365
     33 C          63.8916   84.5977   13.4361 C.ar    1  UNL1        0.1342
     34 S          63.5424   83.7775   12.2297 S.2     1  UNL1       -0.0685
     35 C          62.7624   84.6465   11.2883 C.ar    1  UNL1        0.0308
     36 C          62.0645   84.6767    9.9609 C.3     1  UNL1        0.0606
@<TRIPOS>BOND
     1    10    11    1
     2    11     9    1
     3     9     7    1
     4     7     8    2
     5     7     5    1
     6     5     6    1
     7     5     3    1
     8     3     1    1
     9     1     2    2
    10     1    21    1
    11    21    22    1
    12    22    23    1
    13    23    24   ar
    14    24    25   ar
    15    25    26    1
    16    25    27   ar
    17    27    28    1
    18    27    29   ar
    19    29    30   ar
    20    30    31    1
    21    31    32   ar
    22    32    33   ar
    23    33    34   ar
    24    34    35   ar
    25    35    36    1
    26     1    12    1
    27    12    14    1
    28    14    15    1
    29    14    16    1
    30    16    17    2
    31    16    18    1
    32    18    19    1
    33    19    20    1
    34    30    23   ar
    35    35    31   ar
    36    36    29    1
    37     3     4    1
    38    12    13    1
@<TRIPOS>MOLECULE
*****
 36 38 0 0 0
SMALL
GASTEIGER

@<TRIPOS>ATOM
      1 P          63.8461   90.1037   13.3903 P.3     1  UNL1        0.2667
      2 O          63.8666   88.6272   13.6543 O.2     1  UNL1       -0.2827
      3 N          64.6040   90.3417   14.6627 N.3     1  UNL1       -0.2332
      4 H          65.2378   89.5512   14.7801 H       1  UNL1        0.1318
      5 C          63.8643   90.4996   15.9580 C.3     1  UNL1        0.1604
      6 C          64.0561   91.7360   16.7853 C.3     1  UNL1        0.0295
      7 C          62.9327   89.4211   16.4260 C.2     1  UNL1        0.3317
      8 O          61.4766   89.4817   16.0712 O.2     1  UNL1       -0.2486
      9 O          63.4573   88.2819   17.2488 O.3     1  UNL1       -0.4476
     10 C          62.7019   85.8113   16.9750 C.3     1  UNL1        0.0513
     11 C          62.5483   87.1516   17.6307 C.3     1  UNL1        0.2086
     12 N          63.8255   91.5801   13.1262 N.3     1  UNL1       -0.2332
     13 H          63.7993   92.0415   14.0355 H       1  UNL1        0.1318
     14 C          64.9381   92.2184   12.3486 C.3     1  UNL1        0.1604
     15 C          64.8143   92.3873   10.8633 C.3     1  UNL1        0.0295
     16 C          66.1746   92.6878   13.0563 C.2     1  UNL1        0.3317
     17 O          67.4991   92.6558   12.3529 O.2     1  UNL1       -0.2486
     18 O          66.0866   93.1892   14.4673 O.3     1  UNL1       -0.4476
     19 C          67.3385   93.4191   15.2610 C.3     1  UNL1        0.2086
     20 C          67.9403   92.2972   16.0542 C.3     1  UNL1        0.0513
     21 C          63.0882   89.8656   12.1179 C.3     1  UNL1        0.2934
     22 O          61.8175   89.0688   12.1397 O.3     1  UNL1       -0.4647
     23 C          61.4354   88.2338   10.9537 C.ar    1  UNL1        0.1401
     24 C          60.6450   88.8407    9.8325 C.ar    1  UNL1        0.0324
     25 C          60.2629   88.0058    8.6464 C.ar    1  UNL1       -0.0231
     26 C          59.4726   88.6127    7.5252 C.3     1  UNL1        0.0308
     27 C          60.6711   86.5638    8.5815 C.ar    1  UNL1       -0.0292
     28 C          60.2890   85.7288    7.3955 C.3     1  UNL1        0.0304
     29 C          61.4614   85.9569    9.7026 C.ar    1  UNL1       -0.0171
     30 C          61.8436   86.7919   10.8888 C.ar    1  UNL1        0.0479
     31 C          62.6198   85.9249   11.8353 C.ar    1  UNL1        0.0868
     32 N          63.3356   85.9051   13.1533 N.ar    1  UNL1       -0.2365
     33 C          63.8757   84.5221   13.3667 C.ar    1  UNL1        0.1342
     34 S          63.4935   83.6871   12.1806 S.2     1  UNL1       -0.0685
     35 C          62.7173   84.5541   11.2341 C.ar    1  UNL1        0.0308
     36 C          62.0015   84.5738    9.9161 C.3     1  UNL1        0.0606
@<TRIPOS>BOND
     1    10    11    1
     2    11     9    1
     3     9     7    1
     4     7     8    2
     5     7     5    1
     6     5     6    1
     7     5     3    1
     8     3     1    1
     9     1     2    2
    10     1    21    1
    11    21    22    1
    12    22    23    1
    13    23    24   ar
    14    24    25   ar
    15    25    26    1
    16    25    27   ar
    17    27    28    1
    18    27    29   ar
    19    29    30   ar
    20    30    31    1
    21    31    32   ar
    22    32    33   ar
    23    33    34   ar
    24    34    35   ar
    25    35    36    1
    26     1    12    1
    27    12    14    1
    28    14    15    1
    29    14    16    1
    30    16    17    2
    31    16    18    1
    32    18    19    1
    33    19    20    1
    34    30    23   ar
    35    35    31   ar
    36    36    29    1
    37     3     4    1
    38    12    13    1
@<TRIPOS>MOLECULE
*****
 36 38 0 0 0
SMALL
GASTEIGER

@<TRIPOS>ATOM
      1 P          63.2486   90.2031   13.1901 P.3     1  UNL1        0.2667
      2 O          61.8425   89.7756   13.4901 O.2     1  UNL1       -0.2827
      3 N          63.1652   91.2373   14.2735 N.3     1  UNL1       -0.2332
      4 H          63.6085   92.0809   13.9099 H       1  UNL1        0.1318
      5 C          63.7797   90.9691   15.6153 C.3     1  UNL1        0.1604
      6 C          63.3493   89.7733   16.4118 C.3     1  UNL1        0.0295
      7 C          64.8248   91.8969   16.1604 C.2     1  UNL1        0.3317
      8 O          64.5079   92.7780   17.3322 O.2     1  UNL1       -0.2486
      9 O          66.1868   91.9434   15.5337 O.3     1  UNL1       -0.4476
     10 C          68.7085   92.4500   15.9002 C.3     1  UNL1        0.0513
     11 C          67.2672   92.7826   16.1490 C.3     1  UNL1        0.2086
     12 N          64.6548   90.6307   12.8901 N.3     1  UNL1       -0.2332
     13 H          65.1363   89.8149   12.5119 H       1  UNL1        0.1318
     14 C          64.9077   91.7624   11.9386 C.3     1  UNL1        0.1604
     15 C          64.0156   91.9550   10.7482 C.3     1  UNL1        0.0295
     16 C          66.0526   92.7015   12.1776 C.2     1  UNL1        0.3317
     17 O          65.8615   93.9125   13.0418 O.2     1  UNL1       -0.2486
     18 O          67.3887   92.4297   11.5522 O.3     1  UNL1       -0.4476
     19 C          67.5303   92.4223   10.0589 C.3     1  UNL1        0.2086
     20 C          68.8640   92.6984    9.4306 C.3     1  UNL1        0.0513
     21 C          63.3320   89.1690   12.1067 C.3     1  UNL1        0.2934
     22 O          62.3013   88.0821   12.0265 O.3     1  UNL1       -0.4647
     23 C          62.6524   86.7595   11.4121 C.ar    1  UNL1        0.1401
     24 C          62.4689   86.5446    9.9390 C.ar    1  UNL1        0.0324
     25 C          62.8199   85.2221    9.3244 C.ar    1  UNL1       -0.0231
     26 C          62.6364   85.0071    7.8513 C.3     1  UNL1        0.0308
     27 C          63.3545   84.1143   10.1831 C.ar    1  UNL1       -0.0292
     28 C          63.7055   82.7918    9.5687 C.3     1  UNL1        0.0304
     29 C          63.5379   84.3292   11.6562 C.ar    1  UNL1       -0.0171
     30 C          63.1869   85.6518   12.2708 C.ar    1  UNL1        0.0479
     31 C          63.4727   85.5703   13.7410 C.ar    1  UNL1        0.0868
     32 N          63.4324   86.3373   15.0295 N.ar    1  UNL1       -0.2365
     33 C          63.9351   85.4384   16.1199 C.ar    1  UNL1        0.1342
     34 S          64.2861   84.1158   15.5055 S.2     1  UNL1       -0.0685
     35 C          64.0004   84.1973   14.0352 C.ar    1  UNL1        0.0308
     36 C          64.0407   83.4303   12.7468 C.3     1  UNL1        0.0606
@<TRIPOS>BOND
     1    10    11    1
     2    11     9    1
     3     9     7    1
     4     7     8    2
     5     7     5    1
     6     5     6    1
     7     5     3    1
     8     3     1    1
     9     1     2    2
    10     1    21    1
    11    21    22    1
    12    22    23    1
    13    23    24   ar
    14    24    25   ar
    15    25    26    1
    16    25    27   ar
    17    27    28    1
    18    27    29   ar
    19    29    30   ar
    20    30    31    1
    21    31    32   ar
    22    32    33   ar
    23    33    34   ar
    24    34    35   ar
    25    35    36    1
    26     1    12    1
    27    12    14    1
    28    14    15    1
    29    14    16    1
    30    16    17    2
    31    16    18    1
    32    18    19    1
    33    19    20    1
    34    30    23   ar
    35    35    31   ar
    36    36    29    1
    37     3     4    1
    38    12    13    1
@<TRIPOS>MOLECULE
*****
 36 38 0 0 0
SMALL
GASTEIGER

@<TRIPOS>ATOM
      1 P          63.8321   83.4413   11.9445 P.3     1  UNL1        0.2667
      2 O          64.5355   83.0199   10.6884 O.2     1  UNL1       -0.2827
      3 N          64.1391   82.1097   12.5630 N.3     1  UNL1       -0.2332
      4 H          64.9291   81.7210   12.0481 H       1  UNL1        0.1318
      5 C          63.0853   81.0432   12.6088 C.3     1  UNL1        0.1604
      6 C          62.9009   80.1203   11.4408 C.3     1  UNL1        0.0295
      7 C          62.2158   80.8996   13.8227 C.2     1  UNL1        0.3317
      8 O          62.5189   81.6912   15.0602 O.2     1  UNL1       -0.2486
      9 O          61.0434   79.9643   13.7991 O.3     1  UNL1       -0.4476
     10 C          58.6340   79.4681   14.6349 C.3     1  UNL1        0.0513
     11 C          59.6874   80.4508   14.2170 C.3     1  UNL1        0.2086
     12 N          63.1288   83.8627   13.2005 N.3     1  UNL1       -0.2332
     13 H          62.7486   83.0159   13.6234 H       1  UNL1        0.1318
     14 C          63.8845   84.5829   14.2776 C.3     1  UNL1        0.1604
     15 C          65.3839   84.5437   14.2963 C.3     1  UNL1        0.0295
     16 C          63.1409   85.3423   15.3361 C.2     1  UNL1        0.3317
     17 O          61.7555   84.9213   15.7278 O.2     1  UNL1       -0.2486
     18 O          63.7828   86.5227   16.0030 O.3     1  UNL1       -0.4476
     19 C          63.0059   87.3390   16.9931 C.3     1  UNL1        0.2086
     20 C          63.0329   88.8367   16.9158 C.3     1  UNL1        0.0513
     21 C          63.5253   84.7730   11.3259 C.3     1  UNL1        0.2934
     22 O          62.2616   85.4951   11.6885 O.3     1  UNL1       -0.4647
     23 C          61.6722   86.4975   10.7410 C.ar    1  UNL1        0.1401
     24 C          60.7839   86.0400    9.6223 C.ar    1  UNL1        0.0324
     25 C          60.1945   87.0422    8.6747 C.ar    1  UNL1       -0.0231
     26 C          59.3061   86.5847    7.5560 C.3     1  UNL1        0.0308
     27 C          60.4934   88.5022    8.8458 C.ar    1  UNL1       -0.0292
     28 C          59.9040   89.5045    7.8983 C.3     1  UNL1        0.0304
     29 C          61.3817   88.9597    9.9646 C.ar    1  UNL1       -0.0171
     30 C          61.9711   87.9574   10.9122 C.ar    1  UNL1        0.0479
     31 C          62.8052   88.7005   11.9133 C.ar    1  UNL1        0.0868
     32 N          63.6849   88.5402   13.1176 N.ar    1  UNL1       -0.2365
     33 C          64.1546   89.9028   13.5330 C.ar    1  UNL1        0.1342
     34 S          63.5653   90.9052   12.5855 S.2     1  UNL1       -0.0685
     35 C          62.7312   90.1621   11.5844 C.ar    1  UNL1        0.0308
     36 C          61.8515   90.3224   10.3801 C.3     1  UNL1        0.0606
@<TRIPOS>BOND
     1    10    11    1
     2    11     9    1
     3     9     7    1
     4     7     8    2
     5     7     5    1
     6     5     6    1
     7     5     3    1
     8     3     1    1
     9     1     2    2
    10     1    21    1
    11    21    22    1
    12    22    23    1
    13    23    24   ar
    14    24    25   ar
    15    25    26    1
    16    25    27   ar
    17    27    28    1
    18    27    29   ar
    19    29    30   ar
    20    30    31    1
    21    31    32   ar
    22    32    33   ar
    23    33    34   ar
    24    34    35   ar
    25    35    36    1
    26     1    12    1
    27    12    14    1
    28    14    15    1
    29    14    16    1
    30    16    17    2
    31    16    18    1
    32    18    19    1
    33    19    20    1
    34    30    23   ar
    35    35    31   ar
    36    36    29    1
    37     3     4    1
    38    12    13    1
@<TRIPOS>MOLECULE
*****
 36 38 0 0 0
SMALL
GASTEIGER

@<TRIPOS>ATOM
      1 P          63.2145   89.8962   13.2069 P.3     1  UNL1        0.2667
      2 O          64.6172   89.6862   13.6952 O.2     1  UNL1       -0.2827
      3 N          63.0328   91.0016   14.2044 N.3     1  UNL1       -0.2332
      4 H          63.4009   91.8499   13.7741 H       1  UNL1        0.1318
      5 C          63.6611   90.8972   15.5625 C.3     1  UNL1        0.1604
      6 C          63.3017   89.7579   16.4695 C.3     1  UNL1        0.0295
      7 C          64.6488   91.9321   16.0134 C.2     1  UNL1        0.3317
      8 O          64.6177   92.4330   17.4269 O.2     1  UNL1       -0.2486
      9 O          65.6676   92.4662   15.0507 O.3     1  UNL1       -0.4476
     10 C          68.0429   92.3133   16.0920 C.3     1  UNL1        0.0513
     11 C          67.0571   91.9013   15.0392 C.3     1  UNL1        0.2086
     12 N          61.8119   90.1061   12.7185 N.3     1  UNL1       -0.2332
     13 H          61.3924   90.8127   13.3228 H       1  UNL1        0.1318
     14 C          61.5676   90.5447   11.3051 C.3     1  UNL1        0.1604
     15 C          62.6906   91.1194   10.4935 C.3     1  UNL1        0.0295
     16 C          60.2005   90.4086   10.7031 C.2     1  UNL1        0.3317
     17 O          59.0201   91.0507   11.3698 O.2     1  UNL1       -0.2486
     18 O          60.0137   89.6304    9.4344 O.3     1  UNL1       -0.4476
     19 C          59.7716   88.1511    9.4906 C.3     1  UNL1        0.2086
     20 C          59.6483   87.3624    8.2207 C.3     1  UNL1        0.0513
     21 C          63.3964   88.7908   12.2093 C.3     1  UNL1        0.2934
     22 O          62.3632   87.7098   12.0910 O.3     1  UNL1       -0.4647
     23 C          62.7327   86.3802   11.5031 C.ar    1  UNL1        0.1401
     24 C          62.6213   86.1572   10.0240 C.ar    1  UNL1        0.0324
     25 C          62.9908   84.8277    9.4360 C.ar    1  UNL1       -0.0231
     26 C          62.8795   84.6046    7.9569 C.3     1  UNL1        0.0308
     27 C          63.4716   83.7210   10.3272 C.ar    1  UNL1       -0.0292
     28 C          63.8411   82.3915    9.7393 C.3     1  UNL1        0.0304
     29 C          63.5830   83.9440   11.8063 C.ar    1  UNL1       -0.0171
     30 C          63.2135   85.2736   12.3943 C.ar    1  UNL1        0.0479
     31 C          63.4245   85.1993   13.8776 C.ar    1  UNL1        0.0868
     32 N          63.3265   85.9752   15.1576 N.ar    1  UNL1       -0.2365
     33 C          63.7658   85.0791   16.2774 C.ar    1  UNL1        0.1342
     34 S          64.1353   83.7495   15.6895 S.2     1  UNL1       -0.0685
     35 C          63.9243   83.8238   14.2063 C.ar    1  UNL1        0.0308
     36 C          64.0223   83.0480   12.9263 C.3     1  UNL1        0.0606
@<TRIPOS>BOND
     1    10    11    1
     2    11     9    1
     3     9     7    1
     4     7     8    2
     5     7     5    1
     6     5     6    1
     7     5     3    1
     8     3     1    1
     9     1     2    2
    10     1    21    1
    11    21    22    1
    12    22    23    1
    13    23    24   ar
    14    24    25   ar
    15    25    26    1
    16    25    27   ar
    17    27    28    1
    18    27    29   ar
    19    29    30   ar
    20    30    31    1
    21    31    32   ar
    22    32    33   ar
    23    33    34   ar
    24    34    35   ar
    25    35    36    1
    26     1    12    1
    27    12    14    1
    28    14    15    1
    29    14    16    1
    30    16    17    2
    31    16    18    1
    32    18    19    1
    33    19    20    1
    34    30    23   ar
    35    35    31   ar
    36    36    29    1
    37     3     4    1
    38    12    13    1
@<TRIPOS>MOLECULE
*****
 36 38 0 0 0
SMALL
GASTEIGER

@<TRIPOS>ATOM
      1 P          62.9428   84.0136   13.0169 P.3     1  UNL1        0.2667
      2 O          62.0329   85.0986   13.5116 O.2     1  UNL1       -0.2827
      3 N          63.4330   83.7868   14.4163 N.3     1  UNL1       -0.2332
      4 H          62.6150   83.5597   14.9816 H       1  UNL1        0.1318
      5 C          64.1700   84.8754   15.1386 C.3     1  UNL1        0.1604
      6 C          65.6453   85.0480   14.9305 C.3     1  UNL1        0.0295
      7 C          63.4314   85.7914   16.0690 C.2     1  UNL1        0.3317
      8 O          62.5581   85.2208   17.1467 O.2     1  UNL1       -0.2486
      9 O          63.5663   87.2780   15.9215 O.3     1  UNL1       -0.4476
     10 C          63.1716   89.6752   16.8421 C.3     1  UNL1        0.0513
     11 C          63.0544   88.1880   16.9985 C.3     1  UNL1        0.2086
     12 N          63.8527   82.9286   12.5221 N.3     1  UNL1       -0.2332
     13 H          64.5772   82.8065   13.2295 H       1  UNL1        0.1318
     14 C          63.3021   81.5650   12.2265 C.3     1  UNL1        0.1604
     15 C          63.1301   81.1175   10.8051 C.3     1  UNL1        0.0295
     16 C          62.9234   80.6487   13.3521 C.2     1  UNL1        0.3317
     17 O          63.9158   80.3395   14.4336 O.2     1  UNL1       -0.2486
     18 O          61.5524   80.0417   13.3963 O.3     1  UNL1       -0.4476
     19 C          60.4607   80.7108   14.1776 C.3     1  UNL1        0.2086
     20 C          59.1148   80.0591   14.2952 C.3     1  UNL1        0.0513
     21 C          62.4525   84.2405   11.6175 C.3     1  UNL1        0.2934
     22 O          63.0224   85.3579   10.7950 O.3     1  UNL1       -0.4647
     23 C          62.1059   86.3054   10.0793 C.ar    1  UNL1        0.1401
     24 C          61.2820   85.8220    8.9228 C.ar    1  UNL1        0.0324
     25 C          60.3655   86.7694    8.2070 C.ar    1  UNL1       -0.0231
     26 C          59.5415   86.2861    7.0505 C.3     1  UNL1        0.0308
     27 C          60.2729   88.2003    8.6476 C.ar    1  UNL1       -0.0292
     28 C          59.3564   89.1476    7.9319 C.3     1  UNL1        0.0304
     29 C          61.0968   88.6836    9.8041 C.ar    1  UNL1       -0.0171
     30 C          62.0134   87.7362   10.5200 C.ar    1  UNL1        0.0479
     31 C          62.6982   88.4944   11.6182 C.ar    1  UNL1        0.0868
     32 N          63.6879   88.3775   12.7393 N.ar    1  UNL1       -0.2365
     33 C          63.8062   89.7213   13.3950 C.ar    1  UNL1        0.1342
     34 S          62.8897   90.6688   12.6793 S.2     1  UNL1       -0.0685
     35 C          62.2049   89.9105   11.5811 C.ar    1  UNL1        0.0308
     36 C          61.2152   90.0275   10.4600 C.3     1  UNL1        0.0606
@<TRIPOS>BOND
     1    10    11    1
     2    11     9    1
     3     9     7    1
     4     7     8    2
     5     7     5    1
     6     5     6    1
     7     5     3    1
     8     3     1    1
     9     1     2    2
    10     1    21    1
    11    21    22    1
    12    22    23    1
    13    23    24   ar
    14    24    25   ar
    15    25    26    1
    16    25    27   ar
    17    27    28    1
    18    27    29   ar
    19    29    30   ar
    20    30    31    1
    21    31    32   ar
    22    32    33   ar
    23    33    34   ar
    24    34    35   ar
    25    35    36    1
    26     1    12    1
    27    12    14    1
    28    14    15    1
    29    14    16    1
    30    16    17    2
    31    16    18    1
    32    18    19    1
    33    19    20    1
    34    30    23   ar
    35    35    31   ar
    36    36    29    1
    37     3     4    1
    38    12    13    1
@<TRIPOS>MOLECULE
*****
 36 38 0 0 0
SMALL
GASTEIGER

@<TRIPOS>ATOM
      1 P          64.3059   91.8967   11.7698 P.3     1  UNL1        0.2667
      2 O          63.9217   90.9268   12.8477 O.2     1  UNL1       -0.2827
      3 N          65.0995   92.6892   12.7659 N.3     1  UNL1       -0.2332
      4 H          65.6182   93.3909   12.2377 H       1  UNL1        0.1318
      5 C          66.0893   91.9985   13.6564 C.3     1  UNL1        0.1604
      6 C          65.6401   90.8846   14.5549 C.3     1  UNL1        0.0295
      7 C          67.5284   92.4217   13.6485 C.2     1  UNL1        0.3317
      8 O          68.5435   91.6142   12.8953 O.2     1  UNL1       -0.2486
      9 O          67.9522   93.6525   14.3938 O.3     1  UNL1       -0.4476
     10 C          68.6596   92.2209   16.4431 C.3     1  UNL1        0.0513
     11 C          68.3436   93.5568   15.8386 C.3     1  UNL1        0.2086
     12 N          64.6900   92.8665   10.6919 N.3     1  UNL1       -0.2332
     13 H          64.1570   93.7198   10.8599 H       1  UNL1        0.1318
     14 C          66.1235   93.2766   10.5282 C.3     1  UNL1        0.1604
     15 C          67.1236   92.3038    9.9773 C.3     1  UNL1        0.0295
     16 C          66.5569   94.6595   10.9152 C.2     1  UNL1        0.3317
     17 O          66.0287   95.2871   12.1710 O.2     1  UNL1       -0.2486
     18 O          67.5187   95.4148   10.0464 O.3     1  UNL1       -0.4476
     19 C          67.0833   96.6810    9.3703 C.3     1  UNL1        0.2086
     20 C          67.2972   96.8559    7.8960 C.3     1  UNL1        0.0513
     21 C          63.5122   91.1041   10.7738 C.3     1  UNL1        0.2934
     22 O          62.2213   90.4604   11.1852 O.3     1  UNL1       -0.4647
     23 C          61.6123   89.3881   10.3311 C.ar    1  UNL1        0.1401
     24 C          60.7863   89.7603    9.1357 C.ar    1  UNL1        0.0324
     25 C          60.1773   88.6881    8.2816 C.ar    1  UNL1       -0.0231
     26 C          59.3512   89.0602    7.0861 C.3     1  UNL1        0.0308
     27 C          60.3944   87.2436    8.6229 C.ar    1  UNL1       -0.0292
     28 C          59.7854   86.1714    7.7689 C.3     1  UNL1        0.0304
     29 C          61.2204   86.8715    9.8184 C.ar    1  UNL1       -0.0171
     30 C          61.8294   87.9437   10.6725 C.ar    1  UNL1        0.0479
     31 C          62.5904   87.2776   11.7803 C.ar    1  UNL1        0.0868
     32 N          63.4371   87.5287   12.9928 N.ar    1  UNL1       -0.2365
     33 C          63.8217   86.1999   13.5727 C.ar    1  UNL1        0.1342
     34 S          63.2127   85.1276   12.7186 S.2     1  UNL1       -0.0685
     35 C          62.4518   85.7937   11.6109 C.ar    1  UNL1        0.0308
     36 C          61.6051   85.5427   10.3984 C.3     1  UNL1        0.0606
@<TRIPOS>BOND
     1    10    11    1
     2    11     9    1
     3     9     7    1
     4     7     8    2
     5     7     5    1
     6     5     6    1
     7     5     3    1
     8     3     1    1
     9     1     2    2
    10     1    21    1
    11    21    22    1
    12    22    23    1
    13    23    24   ar
    14    24    25   ar
    15    25    26    1
    16    25    27   ar
    17    27    28    1
    18    27    29   ar
    19    29    30   ar
    20    30    31    1
    21    31    32   ar
    22    32    33   ar
    23    33    34   ar
    24    34    35   ar
    25    35    36    1
    26     1    12    1
    27    12    14    1
    28    14    15    1
    29    14    16    1
    30    16    17    2
    31    16    18    1
    32    18    19    1
    33    19    20    1
    34    30    23   ar
    35    35    31   ar
    36    36    29    1
    37     3     4    1
    38    12    13    1
@<TRIPOS>MOLECULE
*****
 36 38 0 0 0
SMALL
GASTEIGER

@<TRIPOS>ATOM
      1 P          64.3264   91.7018   12.2018 P.3     1  UNL1        0.2667
      2 O          63.9812   90.7420   13.3016 O.2     1  UNL1       -0.2827
      3 N          65.0273   92.5841   13.1918 N.3     1  UNL1       -0.2332
      4 H          65.7289   93.1110   12.6716 H       1  UNL1        0.1318
      5 C          65.7276   91.9787   14.3721 C.3     1  UNL1        0.1604
      6 C          67.0277   91.2550   14.1826 C.3     1  UNL1        0.0295
      7 C          65.1277   92.0970   15.7418 C.2     1  UNL1        0.3317
      8 O          65.9157   92.7224   16.8543 O.2     1  UNL1       -0.2486
      9 O          63.7396   91.5898   15.9990 O.3     1  UNL1       -0.4476
     10 C          62.8581   89.1566   16.2274 C.3     1  UNL1        0.0513
     11 C          63.5334   90.3551   16.8254 C.3     1  UNL1        0.2086
     12 N          64.6716   92.6615   11.1019 N.3     1  UNL1       -0.2332
     13 H          63.9997   93.4269   11.1573 H       1  UNL1        0.1318
     14 C          66.0349   93.2849   11.0510 C.3     1  UNL1        0.1604
     15 C          67.2210   92.4624   10.6427 C.3     1  UNL1        0.0295
     16 C          66.2123   94.7309   11.4085 C.2     1  UNL1        0.3317
     17 O          66.4762   95.1247   12.8316 O.2     1  UNL1       -0.2486
     18 O          66.1257   95.7830   10.3428 O.3     1  UNL1       -0.4476
     19 C          67.2564   95.9640    9.3739 C.3     1  UNL1        0.2086
     20 C          67.2740   95.1906    8.0888 C.3     1  UNL1        0.0513
     21 C          63.6254   90.8193   11.2118 C.3     1  UNL1        0.2934
     22 O          62.3900   90.0713   11.6169 O.3     1  UNL1       -0.4647
     23 C          61.7751   89.0751   10.6791 C.ar    1  UNL1        0.1401
     24 C          60.9728   89.5480    9.5032 C.ar    1  UNL1        0.0324
     25 C          60.3579   88.5519    8.5654 C.ar    1  UNL1       -0.0231
     26 C          59.5556   89.0247    7.3895 C.3     1  UNL1        0.0308
     27 C          60.5452   87.0827    8.8035 C.ar    1  UNL1       -0.0292
     28 C          59.9303   86.0866    7.8657 C.3     1  UNL1        0.0304
     29 C          61.3474   86.6099    9.9794 C.ar    1  UNL1       -0.0171
     30 C          61.9624   87.6060   10.9172 C.ar    1  UNL1        0.0479
     31 C          62.6958   86.8476   11.9835 C.ar    1  UNL1        0.0868
     32 N          63.5291   86.9945   13.2220 N.ar    1  UNL1       -0.2365
     33 C          63.8824   85.6203   13.7086 C.ar    1  UNL1        0.1342
     34 S          63.2675   84.6241   12.7708 S.2     1  UNL1       -0.0685
     35 C          62.5341   85.3826   11.7046 C.ar    1  UNL1        0.0308
     36 C          61.7008   85.2356   10.4661 C.3     1  UNL1        0.0606
@<TRIPOS>BOND
     1    10    11    1
     2    11     9    1
     3     9     7    1
     4     7     8    2
     5     7     5    1
     6     5     6    1
     7     5     3    1
     8     3     1    1
     9     1     2    2
    10     1    21    1
    11    21    22    1
    12    22    23    1
    13    23    24   ar
    14    24    25   ar
    15    25    26    1
    16    25    27   ar
    17    27    28    1
    18    27    29   ar
    19    29    30   ar
    20    30    31    1
    21    31    32   ar
    22    32    33   ar
    23    33    34   ar
    24    34    35   ar
    25    35    36    1
    26     1    12    1
    27    12    14    1
    28    14    15    1
    29    14    16    1
    30    16    17    2
    31    16    18    1
    32    18    19    1
    33    19    20    1
    34    30    23   ar
    35    35    31   ar
    36    36    29    1
    37     3     4    1
    38    12    13    1
