@<TRIPOS>MOLECULE
*****
 57 62 0 0 0
SMALL
GASTEIGER

@<TRIPOS>ATOM
      1 N          61.3358   85.6198    8.0225 N.3     1  UNL1       -0.1862
      2 C          62.2567   84.5109    8.4373 C.3     1  UNL1        0.1775
      3 C          62.9578   84.5740    9.7619 C.2     1  UNL1        0.2452
      4 O          63.8787   83.4650   10.1767 O.2     1  UNL1       -0.2732
      5 N          62.7379   85.7461   10.6717 N.am    1  UNL1       -0.2541
      6 C          63.4390   85.8093   11.9963 C.3     1  UNL1        0.1577
      7 C          63.2191   86.9814   12.9061 C.2     1  UNL1        0.2445
      8 O          63.9201   87.0446   14.2307 O.2     1  UNL1       -0.2731
      9 N          62.2981   88.0904   12.4913 N.am    1  UNL1       -0.2705
     10 C          61.5971   88.0273   11.1667 C.3     1  UNL1        0.1359
     11 C          61.8170   86.8551   10.2569 C.3     1  UNL1        0.1908
     12 N          61.1159   86.7919    8.9323 N.am    1  UNL1       -0.1863
     13 C          60.1950   87.9009    8.5175 C.2     1  UNL1        0.3191
     14 O          59.9751   89.0730    9.4273 O.2     1  UNL1       -0.2512
     15 N          59.4939   87.8378    7.1929 N.am    1  UNL1       -0.2836
     16 H          59.6383   87.0684    6.5958 H       1  UNL1        0.1513
     17 C          60.6348   85.5566    6.6979 C.3     1  UNL1        0.1188
     18 C          62.2846   84.3240    5.1141 C.2     1  UNL1       -0.0034
     19 C          60.9289   84.4350    5.7464 C.2     1  UNL1       -0.0071
     20 C          64.3599   84.7004   12.4111 C.3     1  UNL1        0.0556
     21 C          63.7966   83.4253   12.9650 C.ar    1  UNL1       -0.0198
     22 C          64.5739   82.1480   12.8462 C.ar    1  UNL1       -0.0011
     23 C          64.0106   80.8728   13.4000 C.ar    1  UNL1        0.0363
     24 C          62.6699   80.8751   14.0728 C.ar    1  UNL1        0.1337
     25 O          62.1066   79.6000   14.6266 O.3     1  UNL1       -0.5055
     26 C          61.8925   82.1524   14.1916 C.ar    1  UNL1        0.0363
     27 C          62.4558   83.4275   13.6378 C.ar    1  UNL1       -0.0011
     28 H          62.5922   78.8020   14.5524 H       1  UNL1        0.2922
     29 C          62.0782   89.2626   13.4011 C.3     1  UNL1        0.1217
     30 C          63.2081   90.2033   13.6988 C.ar    1  UNL1        0.0135
     31 C          63.8126   90.2389   15.0711 C.ar    1  UNL1       -0.0012
     32 C          64.9424   91.1796   15.3688 C.ar    1  UNL1       -0.0002
     33 C          65.4677   92.0846   14.2942 C.ar    1  UNL1        0.0016
     34 C          64.8632   92.0490   12.9218 C.ar    1  UNL1        0.0214
     35 C          65.1689   92.8171   11.6702 C.ar    1  UNL1        0.0719
     36 C          64.2280   92.3511   10.5990 C.ar    1  UNL1        0.0805
     37 N          63.3408   91.2951   11.1885 N.ar    1  UNL1       -0.3241
     38 C          62.2522   90.5555   10.4688 C.3     1  UNL1        0.1305
     39 C          63.7334   91.1083   12.6241 C.ar    1  UNL1        0.0577
     40 C          66.2293   93.8669   11.5168 C.2     1  UNL1        0.2474
     41 O          67.6603   93.5379   11.8237 O.2     1  UNL1       -0.2701
     42 N          65.8588   95.2456   11.0564 N.am    1  UNL1       -0.2994
     43 H          64.9196   95.4614   10.8550 H       1  UNL1        0.1498
     44 C          66.9191   96.2954   10.9030 C.3     1  UNL1        0.1070
     45 C          67.2994   96.7832    9.5365 C.3     1  UNL1        0.0936
     46 N          66.6482   96.1925    8.3211 N.3     1  UNL1       -0.2712
     47 C          65.4461   96.8559    7.7171 C.3     1  UNL1        0.0722
     48 C          65.2561   96.8527    6.2292 C.3     1  UNL1        0.0188
     49 C          67.1992   94.9384    7.7098 C.3     1  UNL1        0.0722
     50 C          68.0255   94.0004    8.5388 C.3     1  UNL1        0.0188
     51 C          58.5730   88.9467    6.7781 C.3     1  UNL1        0.1177
     52 C          59.0679   90.0319    5.8684 C.ar    1  UNL1       -0.0025
     53 C          58.0958   90.9884    5.2440 C.ar    1  UNL1       -0.0026
     54 C          58.5906   92.0736    4.3343 C.ar    1  UNL1       -0.0003
     55 C          60.0576   92.2022    4.0491 C.ar    1  UNL1       -0.0000
     56 C          61.0298   91.2456    4.6736 C.ar    1  UNL1       -0.0003
     57 C          60.5349   90.1605    5.5832 C.ar    1  UNL1       -0.0026
@<TRIPOS>BOND
     1    18    19    2
     2    19    17    1
     3    17     1    1
     4     1     2    1
     5     2     3    1
     6     3     4    2
     7     3     5   am
     8     5     6    1
     9     6    20    1
    10    20    21    1
    11    21    22   ar
    12    22    23   ar
    13    23    24   ar
    14    24    25    1
    15    24    26   ar
    16    26    27   ar
    17     6     7    1
    18     7     8    2
    19     7     9   am
    20     9    29    1
    21    29    30    1
    22    30    31   ar
    23    31    32   ar
    24    32    33   ar
    25    33    34   ar
    26    34    35   ar
    27    35    40    1
    28    40    41    2
    29    40    42   am
    30    42    44    1
    31    44    45    1
    32    45    46    1
    33    46    47    1
    34    47    48    1
    35    46    49    1
    36    49    50    1
    37    35    36   ar
    38    36    37   ar
    39    37    38    1
    40    37    39   ar
    41     9    10    1
    42    11    10    1
    43    11    12    1
    44    12    13   am
    45    13    14    2
    46    13    15   am
    47    15    51    1
    48    51    52    1
    49    52    53   ar
    50    53    54   ar
    51    54    55   ar
    52    55    56   ar
    53    56    57   ar
    54    12     1    1
    55    57    52   ar
    56    11     5    1
    57    27    21   ar
    58    39    30   ar
    59    39    34   ar
    60    25    28    1
    61    42    43    1
    62    15    16    1
@<TRIPOS>MOLECULE
*****
 57 62 0 0 0
SMALL
GASTEIGER

@<TRIPOS>ATOM
      1 N          62.8489   84.0635    9.4311 N.3     1  UNL1       -0.1862
      2 C          62.1532   84.1407    8.1045 C.3     1  UNL1        0.1775
      3 C          61.3406   85.3516    7.7532 C.2     1  UNL1        0.2452
      4 O          60.6448   85.4288    6.4265 O.2     1  UNL1       -0.2732
      5 N          61.2237   86.4853    8.7284 N.am    1  UNL1       -0.2541
      6 C          60.4111   87.6961    8.3770 C.3     1  UNL1        0.1577
      7 C          60.2943   88.8298    9.3523 C.2     1  UNL1        0.2445
      8 O          59.4817   90.0407    9.0009 O.2     1  UNL1       -0.2731
      9 N          60.9900   88.7526   10.6790 N.am    1  UNL1       -0.2705
     10 C          61.8026   87.5417   11.0303 C.3     1  UNL1        0.1359
     11 C          61.9195   86.4080   10.0550 C.3     1  UNL1        0.1908
     12 N          62.7321   85.1972   10.4064 N.am    1  UNL1       -0.1863
     13 C          63.4278   85.1200   11.7331 C.2     1  UNL1        0.3191
     14 O          63.3110   86.2536   12.7083 O.2     1  UNL1       -0.2512
     15 N          64.2404   83.9091   12.0844 N.am    1  UNL1       -0.2836
     16 H          64.3171   83.1650   11.4443 H       1  UNL1        0.1513
     17 C          63.6615   82.8526    9.7825 C.3     1  UNL1        0.1188
     18 C          62.7585   81.2873   11.6491 C.2     1  UNL1       -0.0034
     19 C          62.9765   81.5835   10.1949 C.2     1  UNL1       -0.0071
     20 C          59.7154   87.7734    7.0504 C.3     1  UNL1        0.0556
     21 C          59.5634   89.0959    6.3591 C.ar    1  UNL1       -0.0198
     22 C          58.2050   89.7158    6.2163 C.ar    1  UNL1       -0.0011
     23 C          58.0531   91.0383    5.5250 C.ar    1  UNL1        0.0363
     24 C          59.2595   91.7408    4.9764 C.ar    1  UNL1        0.1337
     25 O          59.1075   93.0633    4.2851 O.3     1  UNL1       -0.5055
     26 C          60.6180   91.1209    5.1192 C.ar    1  UNL1        0.0363
     27 C          60.7699   89.7984    5.8105 C.ar    1  UNL1       -0.0011
     28 H          58.2590   93.4506    4.1959 H       1  UNL1        0.2922
     29 C          60.8732   89.8862   11.6542 C.3     1  UNL1        0.1217
     30 C          62.0157   90.2072   12.5717 C.ar    1  UNL1        0.0135
     31 C          61.9740   89.7652   14.0045 C.ar    1  UNL1       -0.0012
     32 C          63.1165   90.0861   14.9219 C.ar    1  UNL1       -0.0002
     33 C          64.3007   90.8490   14.4065 C.ar    1  UNL1        0.0016
     34 C          64.3424   91.2910   12.9737 C.ar    1  UNL1        0.0214
     35 C          65.3686   92.0517   12.1874 C.ar    1  UNL1        0.0719
     36 C          64.8603   92.2010   10.7841 C.ar    1  UNL1        0.0805
     37 N          63.5200   91.5325   10.7031 N.ar    1  UNL1       -0.3241
     38 C          62.6521   91.4422    9.4830 C.3     1  UNL1        0.1305
     39 C          63.1999   90.9701   12.0563 C.ar    1  UNL1        0.0577
     40 C          66.6740   92.5719   12.7124 C.2     1  UNL1        0.2474
     41 O          66.7858   93.9979   13.1643 O.2     1  UNL1       -0.2701
     42 N          67.8674   91.6662   12.7855 N.am    1  UNL1       -0.2994
     43 H          67.7939   90.7303   12.4889 H       1  UNL1        0.1498
     44 C          69.1727   92.1863   13.3104 C.3     1  UNL1        0.1070
     45 C          69.4594   92.1445   14.7822 C.3     1  UNL1        0.0936
     46 N          68.5486   92.8484   15.7439 N.3     1  UNL1       -0.2712
     47 C          67.4135   92.1048   16.3830 C.3     1  UNL1        0.0722
     48 C          66.0367   92.7000   16.3905 C.3     1  UNL1        0.0188
     49 C          68.7730   94.2960   16.0666 C.3     1  UNL1        0.0722
     50 C          70.1643   94.8567   16.0697 C.3     1  UNL1        0.0188
     51 C          64.9362   83.8319   13.4110 C.3     1  UNL1        0.1177
     52 C          64.3451   84.5146   14.6088 C.ar    1  UNL1       -0.0025
     53 C          64.8689   85.8508   15.0448 C.ar    1  UNL1       -0.0026
     54 C          64.2779   86.5335   16.2425 C.ar    1  UNL1       -0.0003
     55 C          63.1631   85.8801   17.0042 C.ar    1  UNL1       -0.0000
     56 C          62.6393   84.5438   16.5682 C.ar    1  UNL1       -0.0003
     57 C          63.2303   83.8610   15.3705 C.ar    1  UNL1       -0.0026
@<TRIPOS>BOND
     1    18    19    2
     2    19    17    1
     3    17     1    1
     4     1     2    1
     5     2     3    1
     6     3     4    2
     7     3     5   am
     8     5     6    1
     9     6    20    1
    10    20    21    1
    11    21    22   ar
    12    22    23   ar
    13    23    24   ar
    14    24    25    1
    15    24    26   ar
    16    26    27   ar
    17     6     7    1
    18     7     8    2
    19     7     9   am
    20     9    29    1
    21    29    30    1
    22    30    31   ar
    23    31    32   ar
    24    32    33   ar
    25    33    34   ar
    26    34    35   ar
    27    35    40    1
    28    40    41    2
    29    40    42   am
    30    42    44    1
    31    44    45    1
    32    45    46    1
    33    46    47    1
    34    47    48    1
    35    46    49    1
    36    49    50    1
    37    35    36   ar
    38    36    37   ar
    39    37    38    1
    40    37    39   ar
    41     9    10    1
    42    11    10    1
    43    11    12    1
    44    12    13   am
    45    13    14    2
    46    13    15   am
    47    15    51    1
    48    51    52    1
    49    52    53   ar
    50    53    54   ar
    51    54    55   ar
    52    55    56   ar
    53    56    57   ar
    54    12     1    1
    55    57    52   ar
    56    11     5    1
    57    27    21   ar
    58    39    30   ar
    59    39    34   ar
    60    25    28    1
    61    42    43    1
    62    15    16    1
