@<TRIPOS>MOLECULE
*****
 32 35 0 0 0
SMALL
GASTEIGER

@<TRIPOS>ATOM
      1 C          63.2201   90.2274   13.4017 C.3     1  UNL1        0.0750
      2 C          63.4679   91.3399   10.3438 C.3     1  UNL1        0.0497
      3 C          64.3971   91.6608   11.4768 C.ar    1  UNL1        0.0342
      4 C          64.2832   91.1494   12.8823 C.ar    1  UNL1       -0.0030
      5 C          65.4191   91.7219   13.6774 C.ar    1  UNL1        0.0155
      6 C          65.8158   91.5671   15.1156 C.ar    1  UNL1        0.0308
      7 C          67.0285   92.2776   15.6397 C.ar    1  UNL1        0.1402
      8 F          67.4253   92.1228   17.0780 F       1  UNL1       -0.2042
      9 C          67.8443   93.1428   14.7256 C.ar    1  UNL1        0.0311
     10 C          67.4476   93.2976   13.2873 C.ar    1  UNL1        0.0195
     11 C          66.2350   92.5871   12.7632 C.ar    1  UNL1        0.0598
     12 N          65.6033   92.5493   11.4032 N.ar    1  UNL1       -0.3256
     13 C          66.0922   93.2731   10.1837 C.3     1  UNL1        0.1474
     14 C          67.5271   93.1517    9.7643 C.2     1  UNL1        0.0732
     15 O          68.1214   91.7986    9.5066 O.co2   1  UNL1       -0.5472
     16 O          68.3681   94.3832    9.6025 O.co2   1  UNL1       -0.5472
     17 C          63.4938   88.7570   13.5177 C.ar    1  UNL1        0.0832
     18 C          64.2680   88.2283   14.6886 C.ar    1  UNL1        0.0217
     19 C          64.5417   86.7581   14.8047 C.ar    1  UNL1        0.0635
     20 C          64.0411   85.8165   13.7498 C.ar    1  UNL1        0.2768
     21 O          64.3147   84.3463   13.8658 O.2     1  UNL1       -0.2655
     22 N          63.2668   86.3452   12.5789 N.ar    1  UNL1       -0.2123
     23 N          62.9931   87.8154   12.4628 N.ar    1  UNL1       -0.1706
     24 C          62.7662   85.4036   11.5240 C.3     1  UNL1        0.1593
     25 C          61.8936   85.9142   10.4159 C.ar    1  UNL1        0.0298
     26 C          60.7452   86.8280   10.7260 C.ar    1  UNL1        0.0022
     27 C          59.8727   87.3386    9.6179 C.ar    1  UNL1        0.0295
     28 C          60.1485   86.9355    8.1997 C.ar    1  UNL1        0.1424
     29 F          59.2760   87.4461    7.0916 F       1  UNL1       -0.2041
     30 C          61.2970   86.0217    7.8895 C.ar    1  UNL1        0.0590
     31 C          62.1695   85.5112    8.9977 C.ar    1  UNL1        0.1403
     32 F          63.3180   84.5974    8.6876 F       1  UNL1       -0.2044
@<TRIPOS>UNITY_ATOM_ATTR
15 1
charge -1
@<TRIPOS>BOND
     1     2     3    1
     2     3     4   ar
     3     4     1    1
     4     1    17    1
     5    17    18   ar
     6    18    19   ar
     7    19    20   ar
     8    20    21    2
     9    20    22   ar
    10    22    24    1
    11    24    25    1
    12    25    26   ar
    13    26    27   ar
    14    27    28   ar
    15    28    29    1
    16    28    30   ar
    17    30    31   ar
    18    31    32    1
    19    22    23   ar
    20     4     5   ar
    21     5     6   ar
    22     6     7   ar
    23     7     8    1
    24     7     9   ar
    25     9    10   ar
    26    10    11   ar
    27    11    12   ar
    28    12    13    1
    29    13    14    1
    30    14    15   ar
    31    14    16   ar
    32    12     3   ar
    33    23    17   ar
    34    11     5   ar
    35    31    25   ar
@<TRIPOS>MOLECULE
*****
 32 35 0 0 0
SMALL
GASTEIGER

@<TRIPOS>ATOM
      1 C          64.0960   90.8889   15.2800 C.3     1  UNL1        0.0750
      2 C          66.4231   92.8622   14.1220 C.3     1  UNL1        0.0497
      3 C          65.3723   92.1660   13.3089 C.ar    1  UNL1        0.0342
      4 C          64.3027   91.2590   13.8411 C.ar    1  UNL1       -0.0030
      5 C          63.4759   90.7871   12.6819 C.ar    1  UNL1        0.0155
      6 C          62.2866   89.8765   12.6020 C.ar    1  UNL1        0.0308
      7 C          61.6560   89.5813   11.2735 C.ar    1  UNL1        0.1402
      8 F          60.4666   88.6707   11.1936 F       1  UNL1       -0.2042
      9 C          62.2147   90.1966   10.0248 C.ar    1  UNL1        0.0311
     10 C          63.4040   91.1072   10.1046 C.ar    1  UNL1        0.0195
     11 C          64.0346   91.4024   11.4332 C.ar    1  UNL1        0.0598
     12 N          65.2066   92.2546   11.8207 N.ar    1  UNL1       -0.3256
     13 C          66.0626   93.0550   10.8843 C.3     1  UNL1        0.1474
     14 C          67.4210   92.5522   10.4949 C.2     1  UNL1        0.0732
     15 O          68.3346   91.9765   11.5362 O.co2   1  UNL1       -0.5472
     16 O          67.8661   92.6250    9.0643 O.co2   1  UNL1       -0.5472
     17 C          63.8723   89.4554   15.6610 C.ar    1  UNL1        0.0832
     18 C          62.9330   89.1145   16.7797 C.ar    1  UNL1        0.0217
     19 C          62.7093   87.6811   17.1607 C.ar    1  UNL1        0.0635
     20 C          63.4249   86.5886   16.4231 C.ar    1  UNL1        0.2768
     21 O          63.2012   85.1551   16.8041 O.2     1  UNL1       -0.2655
     22 N          64.3642   86.9294   15.3044 N.ar    1  UNL1       -0.2123
     23 N          64.5880   88.3628   14.9233 N.ar    1  UNL1       -0.1706
     24 C          65.0798   85.8369   14.5667 C.3     1  UNL1        0.1593
     25 C          64.2961   84.7839   13.8408 C.ar    1  UNL1        0.0298
     26 C          64.4574   83.3395   14.2120 C.ar    1  UNL1        0.0022
     27 C          63.6737   82.2866   13.4860 C.ar    1  UNL1        0.0295
     28 C          62.7286   82.6779   12.3890 C.ar    1  UNL1        0.1424
     29 F          61.9448   81.6250   11.6631 F       1  UNL1       -0.2041
     30 C          62.5672   84.1223   12.0178 C.ar    1  UNL1        0.0590
     31 C          63.3510   85.1753   12.7437 C.ar    1  UNL1        0.1403
     32 F          63.1897   86.6197   12.3726 F       1  UNL1       -0.2044
@<TRIPOS>UNITY_ATOM_ATTR
15 1
charge -1
@<TRIPOS>BOND
     1     2     3    1
     2     3     4   ar
     3     4     1    1
     4     1    17    1
     5    17    18   ar
     6    18    19   ar
     7    19    20   ar
     8    20    21    2
     9    20    22   ar
    10    22    24    1
    11    24    25    1
    12    25    26   ar
    13    26    27   ar
    14    27    28   ar
    15    28    29    1
    16    28    30   ar
    17    30    31   ar
    18    31    32    1
    19    22    23   ar
    20     4     5   ar
    21     5     6   ar
    22     6     7   ar
    23     7     8    1
    24     7     9   ar
    25     9    10   ar
    26    10    11   ar
    27    11    12   ar
    28    12    13    1
    29    13    14    1
    30    14    15   ar
    31    14    16   ar
    32    12     3   ar
    33    23    17   ar
    34    11     5   ar
    35    31    25   ar
@<TRIPOS>MOLECULE
*****
 32 35 0 0 0
SMALL
GASTEIGER

@<TRIPOS>ATOM
      1 C          63.0204   90.0181   13.1535 C.3     1  UNL1        0.0750
      2 C          63.3722   91.1965   10.1307 C.3     1  UNL1        0.0497
      3 C          64.1741   91.5989   11.3328 C.ar    1  UNL1        0.0342
      4 C          64.0124   91.0573   12.7222 C.ar    1  UNL1       -0.0030
      5 C          65.0168   91.7373   13.6047 C.ar    1  UNL1        0.0155
      6 C          65.3199   91.6049   15.0677 C.ar    1  UNL1        0.0308
      7 C          66.4056   92.4344   15.6867 C.ar    1  UNL1        0.1402
      8 F          66.7088   92.3020   17.1499 F       1  UNL1       -0.2042
      9 C          67.1881   93.3963   14.8427 C.ar    1  UNL1        0.0311
     10 C          66.8849   93.5288   13.3797 C.ar    1  UNL1        0.0195
     11 C          65.7993   92.6993   12.7607 C.ar    1  UNL1        0.0598
     12 N          65.2784   92.6137   11.3566 N.ar    1  UNL1       -0.3256
     13 C          65.7749   93.4042   10.1824 C.3     1  UNL1        0.1474
     14 C          67.2273   93.3628    9.8105 C.2     1  UNL1        0.0732
     15 O          67.9869   94.6407    9.6099 O.co2   1  UNL1       -0.5472
     16 O          67.9204   92.0436    9.6391 O.co2   1  UNL1       -0.5472
     17 C          62.0905   89.4058   12.1481 C.ar    1  UNL1        0.0832
     18 C          60.7718   90.0567   11.8524 C.ar    1  UNL1        0.0217
     19 C          59.8420   89.4446   10.8471 C.ar    1  UNL1        0.0635
     20 C          60.2309   88.1815   10.1375 C.ar    1  UNL1        0.2768
     21 O          59.3011   87.5693    9.1322 O.2     1  UNL1       -0.2655
     22 N          61.5495   87.5307   10.4333 N.ar    1  UNL1       -0.2123
     23 N          62.4794   88.1428   11.4386 N.ar    1  UNL1       -0.1706
     24 C          61.9384   86.2676    9.7237 C.3     1  UNL1        0.1593
     25 C          62.6205   85.1640   10.4765 C.ar    1  UNL1        0.0298
     26 C          62.4997   85.0886   11.9698 C.ar    1  UNL1        0.0022
     27 C          63.1818   83.9850   12.7226 C.ar    1  UNL1        0.0295
     28 C          63.9846   82.9568   11.9822 C.ar    1  UNL1        0.1424
     29 F          64.6667   81.8531   12.7350 F       1  UNL1       -0.2041
     30 C          64.1054   83.0321   10.4890 C.ar    1  UNL1        0.0590
     31 C          63.4233   84.1358    9.7361 C.ar    1  UNL1        0.1403
     32 F          63.5441   84.2112    8.2429 F       1  UNL1       -0.2044
@<TRIPOS>UNITY_ATOM_ATTR
15 1
charge -1
@<TRIPOS>BOND
     1     2     3    1
     2     3     4   ar
     3     4     1    1
     4     1    17    1
     5    17    18   ar
     6    18    19   ar
     7    19    20   ar
     8    20    21    2
     9    20    22   ar
    10    22    24    1
    11    24    25    1
    12    25    26   ar
    13    26    27   ar
    14    27    28   ar
    15    28    29    1
    16    28    30   ar
    17    30    31   ar
    18    31    32    1
    19    22    23   ar
    20     4     5   ar
    21     5     6   ar
    22     6     7   ar
    23     7     8    1
    24     7     9   ar
    25     9    10   ar
    26    10    11   ar
    27    11    12   ar
    28    12    13    1
    29    13    14    1
    30    14    15   ar
    31    14    16   ar
    32    12     3   ar
    33    23    17   ar
    34    11     5   ar
    35    31    25   ar
@<TRIPOS>MOLECULE
*****
 32 35 0 0 0
SMALL
GASTEIGER

@<TRIPOS>ATOM
      1 C          64.1457   90.3731   15.4439 C.3     1  UNL1        0.0750
      2 C          66.6077   92.0598   14.1235 C.3     1  UNL1        0.0497
      3 C          65.3815   91.5807   13.4044 C.ar    1  UNL1        0.0342
      4 C          64.2499   90.8055   14.0114 C.ar    1  UNL1       -0.0030
      5 C          63.2406   90.5384   12.9343 C.ar    1  UNL1        0.0155
      6 C          61.9248   89.8184   12.9479 C.ar    1  UNL1        0.0308
      7 C          61.1169   89.7087   11.6889 C.ar    1  UNL1        0.1402
      8 F          59.8010   88.9887   11.7025 F       1  UNL1       -0.2042
      9 C          61.6248   90.3189   10.4162 C.ar    1  UNL1        0.0311
     10 C          62.9406   91.0389   10.4026 C.ar    1  UNL1        0.0195
     11 C          63.7485   91.1486   11.6616 C.ar    1  UNL1        0.0598
     12 N          65.0716   91.7928   11.9522 N.ar    1  UNL1       -0.3256
     13 C          65.9336   92.5212   10.9640 C.3     1  UNL1        0.1474
     14 C          66.0184   94.0182   11.0030 C.2     1  UNL1        0.0732
     15 O          67.0073   94.6901   11.9089 O.co2   1  UNL1       -0.5472
     16 O          65.1143   94.8436   10.1360 O.co2   1  UNL1       -0.5472
     17 C          63.7710   88.9589   15.7752 C.ar    1  UNL1        0.0832
     18 C          62.9997   88.6609   17.0267 C.ar    1  UNL1        0.0217
     19 C          62.6250   87.2468   17.3581 C.ar    1  UNL1        0.0635
     20 C          63.0216   86.1306   16.4378 C.ar    1  UNL1        0.2768
     21 O          62.6469   84.7164   16.7690 O.2     1  UNL1       -0.2655
     22 N          63.7929   86.4286   15.1863 N.ar    1  UNL1       -0.2123
     23 N          64.1676   87.8427   14.8550 N.ar    1  UNL1       -0.1706
     24 C          64.1895   85.3124   14.2660 C.3     1  UNL1        0.1593
     25 C          63.6420   85.2606   12.8705 C.ar    1  UNL1        0.0298
     26 C          62.8688   86.4242   12.3245 C.ar    1  UNL1        0.0022
     27 C          62.3213   86.3724   10.9290 C.ar    1  UNL1        0.0295
     28 C          62.5470   85.1570   10.0794 C.ar    1  UNL1        0.1424
     29 F          61.9995   85.1052    8.6838 F       1  UNL1       -0.2041
     30 C          63.3203   83.9934   10.6253 C.ar    1  UNL1        0.0590
     31 C          63.8678   84.0452   12.0209 C.ar    1  UNL1        0.1403
     32 F          64.6411   82.8816   12.5669 F       1  UNL1       -0.2044
@<TRIPOS>UNITY_ATOM_ATTR
15 1
charge -1
@<TRIPOS>BOND
     1     2     3    1
     2     3     4   ar
     3     4     1    1
     4     1    17    1
     5    17    18   ar
     6    18    19   ar
     7    19    20   ar
     8    20    21    2
     9    20    22   ar
    10    22    24    1
    11    24    25    1
    12    25    26   ar
    13    26    27   ar
    14    27    28   ar
    15    28    29    1
    16    28    30   ar
    17    30    31   ar
    18    31    32    1
    19    22    23   ar
    20     4     5   ar
    21     5     6   ar
    22     6     7   ar
    23     7     8    1
    24     7     9   ar
    25     9    10   ar
    26    10    11   ar
    27    11    12   ar
    28    12    13    1
    29    13    14    1
    30    14    15   ar
    31    14    16   ar
    32    12     3   ar
    33    23    17   ar
    34    11     5   ar
    35    31    25   ar
@<TRIPOS>MOLECULE
*****
 32 35 0 0 0
SMALL
GASTEIGER

@<TRIPOS>ATOM
      1 C          62.9974   89.9761   13.1824 C.3     1  UNL1        0.0750
      2 C          63.3930   91.1421   10.1602 C.3     1  UNL1        0.0497
      3 C          64.1734   91.5538   11.3733 C.ar    1  UNL1        0.0342
      4 C          63.9915   91.0179   12.7624 C.ar    1  UNL1       -0.0030
      5 C          64.9784   91.7066   13.6579 C.ar    1  UNL1        0.0155
      6 C          65.2583   91.5823   15.1262 C.ar    1  UNL1        0.0308
      7 C          66.3300   92.4197   15.7589 C.ar    1  UNL1        0.1402
      8 F          66.6099   92.2954   17.2273 F       1  UNL1       -0.2042
      9 C          67.1217   93.3813   14.9232 C.ar    1  UNL1        0.0311
     10 C          66.8418   93.5055   13.4548 C.ar    1  UNL1        0.0195
     11 C          65.7701   92.6682   12.8222 C.ar    1  UNL1        0.0598
     12 N          65.2726   92.5738   11.4102 N.ar    1  UNL1       -0.3256
     13 C          65.7845   93.3611   10.2406 C.3     1  UNL1        0.1474
     14 C          67.2020   93.1872    9.7820 C.2     1  UNL1        0.0732
     15 O          68.1128   92.2388   10.5038 O.co2   1  UNL1       -0.5472
     16 O          67.7088   93.9616    8.6015 O.co2   1  UNL1       -0.5472
     17 C          63.4442   88.5628   13.4132 C.ar    1  UNL1        0.0832
     18 C          64.3097   88.2331   14.5931 C.ar    1  UNL1        0.0217
     19 C          64.7566   86.8200   14.8239 C.ar    1  UNL1        0.0635
     20 C          64.3378   85.7365   13.8749 C.ar    1  UNL1        0.2768
     21 O          64.7846   84.3233   14.1057 O.2     1  UNL1       -0.2655
     22 N          63.4723   86.0662   12.6950 N.ar    1  UNL1       -0.2123
     23 N          63.0254   87.4794   12.4641 N.ar    1  UNL1       -0.1706
     24 C          63.0535   84.9828   11.7459 C.3     1  UNL1        0.1593
     25 C          62.8440   83.5851   12.2486 C.ar    1  UNL1        0.0298
     26 C          62.1647   83.3560   13.5662 C.ar    1  UNL1        0.0022
     27 C          61.9552   81.9583   14.0688 C.ar    1  UNL1        0.0295
     28 C          62.4248   80.7899   13.2540 C.ar    1  UNL1        0.1424
     29 F          62.2153   79.3922   13.7566 F       1  UNL1       -0.2041
     30 C          63.1041   81.0190   11.9363 C.ar    1  UNL1        0.0590
     31 C          63.3136   82.4167   11.4337 C.ar    1  UNL1        0.1403
     32 F          63.9929   82.6459   10.1161 F       1  UNL1       -0.2044
@<TRIPOS>UNITY_ATOM_ATTR
15 1
charge -1
@<TRIPOS>BOND
     1     2     3    1
     2     3     4   ar
     3     4     1    1
     4     1    17    1
     5    17    18   ar
     6    18    19   ar
     7    19    20   ar
     8    20    21    2
     9    20    22   ar
    10    22    24    1
    11    24    25    1
    12    25    26   ar
    13    26    27   ar
    14    27    28   ar
    15    28    29    1
    16    28    30   ar
    17    30    31   ar
    18    31    32    1
    19    22    23   ar
    20     4     5   ar
    21     5     6   ar
    22     6     7   ar
    23     7     8    1
    24     7     9   ar
    25     9    10   ar
    26    10    11   ar
    27    11    12   ar
    28    12    13    1
    29    13    14    1
    30    14    15   ar
    31    14    16   ar
    32    12     3   ar
    33    23    17   ar
    34    11     5   ar
    35    31    25   ar
@<TRIPOS>MOLECULE
*****
 32 35 0 0 0
SMALL
GASTEIGER

@<TRIPOS>ATOM
      1 C          64.5379   86.0501   14.9517 C.3     1  UNL1        0.0750
      2 C          64.1737   82.8368   14.5138 C.3     1  UNL1        0.0497
      3 C          63.6767   83.9137   13.5955 C.ar    1  UNL1        0.0342
      4 C          63.8441   85.3907   13.7968 C.ar    1  UNL1       -0.0030
      5 C          63.1959   86.0926   12.6404 C.ar    1  UNL1        0.0155
      6 C          63.0495   87.5468   12.3032 C.ar    1  UNL1        0.0308
      7 C          62.3351   87.9579   11.0500 C.ar    1  UNL1        0.1402
      8 F          62.1886   89.4122   10.7128 F       1  UNL1       -0.2042
      9 C          61.7670   86.9147   10.1340 C.ar    1  UNL1        0.0311
     10 C          61.9134   85.4605   10.4712 C.ar    1  UNL1        0.0195
     11 C          62.6278   85.0494   11.7244 C.ar    1  UNL1        0.0598
     12 N          62.9250   83.7028   12.3147 N.ar    1  UNL1       -0.3256
     13 C          62.5383   82.3779   11.7273 C.3     1  UNL1        0.1474
     14 C          63.4158   81.7287   10.6986 C.2     1  UNL1        0.0732
     15 O          64.6928   82.3925   10.2754 O.co2   1  UNL1       -0.5472
     16 O          63.0166   80.4158   10.0929 O.co2   1  UNL1       -0.5472
     17 C          64.2083   87.4678   15.3145 C.ar    1  UNL1        0.0832
     18 C          63.3013   87.7537   16.4744 C.ar    1  UNL1        0.0217
     19 C          62.9716   89.1713   16.8372 C.ar    1  UNL1        0.0635
     20 C          63.5491   90.3031   16.0399 C.ar    1  UNL1        0.2768
     21 O          63.2195   91.7208   16.4026 O.2     1  UNL1       -0.2655
     22 N          64.4561   90.0172   14.8800 N.ar    1  UNL1       -0.2123
     23 N          64.7858   88.5996   14.5172 N.ar    1  UNL1       -0.1706
     24 C          65.0336   91.1490   14.0827 C.3     1  UNL1        0.1593
     25 C          66.2678   91.8525   14.5642 C.ar    1  UNL1        0.0298
     26 C          66.3067   92.4387   15.9444 C.ar    1  UNL1        0.0022
     27 C          67.5410   93.1421   16.4258 C.ar    1  UNL1        0.0295
     28 C          68.7362   93.2594   15.5272 C.ar    1  UNL1        0.1424
     29 F          69.9705   93.9628   16.0087 F       1  UNL1       -0.2041
     30 C          68.6973   92.6732   14.1470 C.ar    1  UNL1        0.0590
     31 C          67.4631   91.9697   13.6655 C.ar    1  UNL1        0.1403
     32 F          67.4241   91.3835   12.2854 F       1  UNL1       -0.2044
@<TRIPOS>UNITY_ATOM_ATTR
15 1
charge -1
@<TRIPOS>BOND
     1     2     3    1
     2     3     4   ar
     3     4     1    1
     4     1    17    1
     5    17    18   ar
     6    18    19   ar
     7    19    20   ar
     8    20    21    2
     9    20    22   ar
    10    22    24    1
    11    24    25    1
    12    25    26   ar
    13    26    27   ar
    14    27    28   ar
    15    28    29    1
    16    28    30   ar
    17    30    31   ar
    18    31    32    1
    19    22    23   ar
    20     4     5   ar
    21     5     6   ar
    22     6     7   ar
    23     7     8    1
    24     7     9   ar
    25     9    10   ar
    26    10    11   ar
    27    11    12   ar
    28    12    13    1
    29    13    14    1
    30    14    15   ar
    31    14    16   ar
    32    12     3   ar
    33    23    17   ar
    34    11     5   ar
    35    31    25   ar
@<TRIPOS>MOLECULE
*****
 32 35 0 0 0
SMALL
GASTEIGER

@<TRIPOS>ATOM
      1 C          64.7353   86.9785   14.7019 C.3     1  UNL1        0.0750
      2 C          64.2107   83.7870   14.2669 C.3     1  UNL1        0.0497
      3 C          63.6991   84.8921   13.3911 C.ar    1  UNL1        0.0342
      4 C          63.9402   86.3590   13.5910 C.ar    1  UNL1       -0.0030
      5 C          63.2466   87.0978   12.4851 C.ar    1  UNL1        0.0155
      6 C          63.1385   88.5600   12.1684 C.ar    1  UNL1        0.0308
      7 C          62.3605   89.0118   10.9681 C.ar    1  UNL1        0.1402
      8 F          62.2523   90.4741   10.6514 F       1  UNL1       -0.2042
      9 C          61.6907   88.0015   10.0846 C.ar    1  UNL1        0.0311
     10 C          61.7989   86.5394   10.4013 C.ar    1  UNL1        0.0195
     11 C          62.5768   86.0875   11.6015 C.ar    1  UNL1        0.0598
     12 N          62.8565   84.7243   12.1615 N.ar    1  UNL1       -0.3256
     13 C          62.3775   83.4220   11.5918 C.3     1  UNL1        0.1474
     14 C          63.3647   82.3488   11.2403 C.2     1  UNL1        0.0732
     15 O          64.6669   82.7114   10.5898 O.co2   1  UNL1       -0.5472
     16 O          63.0500   80.9130   11.5393 O.co2   1  UNL1       -0.5472
     17 C          64.3753   88.3426   15.2117 C.ar    1  UNL1        0.0832
     18 C          63.2492   88.5048   16.1893 C.ar    1  UNL1        0.0217
     19 C          62.8892   89.8688   16.6991 C.ar    1  UNL1        0.0635
     20 C          63.6553   91.0705   16.2313 C.ar    1  UNL1        0.2768
     21 O          63.2954   92.4346   16.7410 O.2     1  UNL1       -0.2655
     22 N          64.7814   90.9083   15.2537 N.ar    1  UNL1       -0.2123
     23 N          65.1414   89.5443   14.7439 N.ar    1  UNL1       -0.1706
     24 C          65.5475   92.1101   14.7859 C.3     1  UNL1        0.1593
     25 C          66.0716   92.1654   13.3815 C.ar    1  UNL1        0.0298
     26 C          65.1224   92.3401   12.2332 C.ar    1  UNL1        0.0022
     27 C          65.6465   92.3954   10.8288 C.ar    1  UNL1        0.0295
     28 C          67.1196   92.2761   10.5727 C.ar    1  UNL1        0.1424
     29 F          67.6437   92.3315    9.1684 F       1  UNL1       -0.2041
     30 C          68.0688   92.1015   11.7211 C.ar    1  UNL1        0.0590
     31 C          67.5447   92.0461   13.1255 C.ar    1  UNL1        0.1403
     32 F          68.4938   91.8714   14.2738 F       1  UNL1       -0.2044
@<TRIPOS>UNITY_ATOM_ATTR
15 1
charge -1
@<TRIPOS>BOND
     1     2     3    1
     2     3     4   ar
     3     4     1    1
     4     1    17    1
     5    17    18   ar
     6    18    19   ar
     7    19    20   ar
     8    20    21    2
     9    20    22   ar
    10    22    24    1
    11    24    25    1
    12    25    26   ar
    13    26    27   ar
    14    27    28   ar
    15    28    29    1
    16    28    30   ar
    17    30    31   ar
    18    31    32    1
    19    22    23   ar
    20     4     5   ar
    21     5     6   ar
    22     6     7   ar
    23     7     8    1
    24     7     9   ar
    25     9    10   ar
    26    10    11   ar
    27    11    12   ar
    28    12    13    1
    29    13    14    1
    30    14    15   ar
    31    14    16   ar
    32    12     3   ar
    33    23    17   ar
    34    11     5   ar
    35    31    25   ar
@<TRIPOS>MOLECULE
*****
 32 35 0 0 0
SMALL
GASTEIGER

@<TRIPOS>ATOM
      1 C          63.2168   90.4229   13.2404 C.3     1  UNL1        0.0750
      2 C          64.4073   87.7872   14.7521 C.3     1  UNL1        0.0497
      3 C          63.6400   87.7931   13.4632 C.ar    1  UNL1        0.0342
      4 C          63.0928   89.0045   12.7684 C.ar    1  UNL1       -0.0030
      5 C          62.3998   88.5487   11.5186 C.ar    1  UNL1        0.0155
      6 C          61.6759   89.3004   10.4412 C.ar    1  UNL1        0.0308
      7 C          61.0709   88.5588    9.2862 C.ar    1  UNL1        0.1402
      8 F          60.3469   89.3104    8.2087 F       1  UNL1       -0.2042
      9 C          61.1898   87.0655    9.2087 C.ar    1  UNL1        0.0311
     10 C          61.9137   86.3138   10.2861 C.ar    1  UNL1        0.0195
     11 C          62.5187   87.0554   11.4410 C.ar    1  UNL1        0.0598
     12 N          63.2852   86.5884   12.6429 N.ar    1  UNL1       -0.3256
     13 C          63.6354   85.1664   12.9674 C.3     1  UNL1        0.1474
     14 C          62.7893   84.3865   13.9295 C.2     1  UNL1        0.0732
     15 O          62.1779   83.0840   13.5052 O.co2   1  UNL1       -0.5472
     16 O          62.5544   84.9088   15.3158 O.co2   1  UNL1       -0.5472
     17 C          64.5725   91.0149   13.4888 C.ar    1  UNL1        0.0832
     18 C          65.0503   91.2314   14.8941 C.ar    1  UNL1        0.0217
     19 C          66.4060   91.8233   15.1426 C.ar    1  UNL1        0.0635
     20 C          67.2838   92.1988   13.9857 C.ar    1  UNL1        0.2768
     21 O          68.6395   92.7908   14.2341 O.2     1  UNL1       -0.2655
     22 N          66.8060   91.9824   12.5804 N.ar    1  UNL1       -0.2123
     23 N          65.4504   91.3904   12.3319 N.ar    1  UNL1       -0.1706
     24 C          67.6839   92.3579   11.4235 C.3     1  UNL1        0.1593
     25 C          67.2849   93.4810   10.5129 C.ar    1  UNL1        0.0298
     26 C          66.4405   94.6057   11.0346 C.ar    1  UNL1        0.0022
     27 C          66.0415   95.7288   10.1240 C.ar    1  UNL1        0.0295
     28 C          66.4868   95.7273    8.6916 C.ar    1  UNL1        0.1424
     29 F          66.0878   96.8505    7.7809 F       1  UNL1       -0.2041
     30 C          67.3312   94.6027    8.1698 C.ar    1  UNL1        0.0590
     31 C          67.7302   93.4795    9.0805 C.ar    1  UNL1        0.1403
     32 F          68.5745   92.3548    8.5589 F       1  UNL1       -0.2044
@<TRIPOS>UNITY_ATOM_ATTR
15 1
charge -1
@<TRIPOS>BOND
     1     2     3    1
     2     3     4   ar
     3     4     1    1
     4     1    17    1
     5    17    18   ar
     6    18    19   ar
     7    19    20   ar
     8    20    21    2
     9    20    22   ar
    10    22    24    1
    11    24    25    1
    12    25    26   ar
    13    26    27   ar
    14    27    28   ar
    15    28    29    1
    16    28    30   ar
    17    30    31   ar
    18    31    32    1
    19    22    23   ar
    20     4     5   ar
    21     5     6   ar
    22     6     7   ar
    23     7     8    1
    24     7     9   ar
    25     9    10   ar
    26    10    11   ar
    27    11    12   ar
    28    12    13    1
    29    13    14    1
    30    14    15   ar
    31    14    16   ar
    32    12     3   ar
    33    23    17   ar
    34    11     5   ar
    35    31    25   ar
@<TRIPOS>MOLECULE
*****
 32 35 0 0 0
SMALL
GASTEIGER

@<TRIPOS>ATOM
      1 C          64.5819   87.1578   14.6362 C.3     1  UNL1        0.0750
      2 C          63.2111   89.0331   12.3441 C.3     1  UNL1        0.0497
      3 C          63.1860   87.5339   12.3879 C.ar    1  UNL1        0.0342
      4 C          63.8161   86.6720   13.4414 C.ar    1  UNL1       -0.0030
      5 C          63.5460   85.2388   13.0905 C.ar    1  UNL1        0.0155
      6 C          63.9228   83.9524   13.7637 C.ar    1  UNL1        0.0308
      7 C          63.5025   82.6423   13.1664 C.ar    1  UNL1        0.1402
      8 F          63.8793   81.3558   13.8396 F       1  UNL1       -0.2042
      9 C          62.7054   82.6185   11.8959 C.ar    1  UNL1        0.0311
     10 C          62.3286   83.9049   11.2227 C.ar    1  UNL1        0.0195
     11 C          62.7489   85.2150   11.8200 C.ar    1  UNL1        0.0598
     12 N          62.5265   86.6335   11.3858 N.ar    1  UNL1       -0.3256
     13 C          61.7762   87.0741   10.1639 C.3     1  UNL1        0.1474
     14 C          60.3390   87.4887   10.2752 C.2     1  UNL1        0.0732
     15 O          59.3903   87.2167    9.1456 O.co2   1  UNL1       -0.5472
     16 O          59.8504   88.1755   11.5160 O.co2   1  UNL1       -0.5472
     17 C          64.3279   88.5318   15.1819 C.ar    1  UNL1        0.0832
     18 C          63.2678   88.7415   16.2222 C.ar    1  UNL1        0.0217
     19 C          63.0137   90.1154   16.7679 C.ar    1  UNL1        0.0635
     20 C          63.8198   91.2796   16.2733 C.ar    1  UNL1        0.2768
     21 O          63.5659   92.6536   16.8190 O.2     1  UNL1       -0.2655
     22 N          64.8800   91.0700   15.2330 N.ar    1  UNL1       -0.2123
     23 N          65.1340   89.6961   14.6873 N.ar    1  UNL1       -0.1706
     24 C          65.6861   92.2343   14.7384 C.3     1  UNL1        0.1593
     25 C          66.2143   92.2384   13.3345 C.ar    1  UNL1        0.0298
     26 C          65.2802   92.4628   12.1825 C.ar    1  UNL1        0.0022
     27 C          65.8085   92.4669   10.7786 C.ar    1  UNL1        0.0295
     28 C          67.2706   92.2467   10.5267 C.ar    1  UNL1        0.1424
     29 F          67.7989   92.2509    9.1228 F       1  UNL1       -0.2041
     30 C          68.2047   92.0224   11.6788 C.ar    1  UNL1        0.0590
     31 C          67.6765   92.0182   13.0827 C.ar    1  UNL1        0.1403
     32 F          68.6105   91.7939   14.2348 F       1  UNL1       -0.2044
@<TRIPOS>UNITY_ATOM_ATTR
15 1
charge -1
@<TRIPOS>BOND
     1     2     3    1
     2     3     4   ar
     3     4     1    1
     4     1    17    1
     5    17    18   ar
     6    18    19   ar
     7    19    20   ar
     8    20    21    2
     9    20    22   ar
    10    22    24    1
    11    24    25    1
    12    25    26   ar
    13    26    27   ar
    14    27    28   ar
    15    28    29    1
    16    28    30   ar
    17    30    31   ar
    18    31    32    1
    19    22    23   ar
    20     4     5   ar
    21     5     6   ar
    22     6     7   ar
    23     7     8    1
    24     7     9   ar
    25     9    10   ar
    26    10    11   ar
    27    11    12   ar
    28    12    13    1
    29    13    14    1
    30    14    15   ar
    31    14    16   ar
    32    12     3   ar
    33    23    17   ar
    34    11     5   ar
    35    31    25   ar
