@<TRIPOS>MOLECULE
*****
 28 32 0 0 0
SMALL
GASTEIGER

@<TRIPOS>ATOM
      1 N          61.5619   88.0002   10.7230 N.ar    1  UNL1       -0.2954
      2 C          62.1088   89.3968   10.7048 C.ar    1  UNL1        0.2014
      3 N          61.5025   90.1168    9.5369 N.ar    1  UNL1       -0.2136
      4 C          60.5809   89.1651    8.8333 C.ar    1  UNL1        0.0999
      5 C          59.7130   89.3208    7.6198 C.ar    1  UNL1        0.0207
      6 C          58.8818   88.1682    7.1394 C.ar    1  UNL1        0.0016
      7 C          58.9185   86.8601    7.8725 C.ar    1  UNL1        0.0016
      8 C          59.7864   86.7045    9.0859 C.ar    1  UNL1        0.0188
      9 C          60.6176   87.8570    9.5663 C.ar    1  UNL1        0.0801
     10 N          63.0897   89.9724   11.6827 N.pl3   1  UNL1       -0.2794
     11 C          63.3834   89.2496   12.9639 C.3     1  UNL1        0.0955
     12 C          64.3643   89.8252   13.9419 C.3     1  UNL1        0.0442
     13 C          65.0517   91.1235   13.6387 C.3     1  UNL1        0.0904
     14 C          64.7580   91.8462   12.3575 C.3     1  UNL1        0.0442
     15 C          63.7771   91.2707   11.3796 C.3     1  UNL1        0.0955
     16 N          66.0326   91.6991   14.6167 N.ar    1  UNL1       -0.3096
     17 C          67.5272   91.6471   14.5005 C.ar    1  UNL1        0.0980
     18 C          68.1095   92.3436   15.6945 C.ar    1  UNL1        0.1193
     19 N          66.9748   92.8261   16.5487 N.ar    1  UNL1       -0.2223
     20 C          65.6913   92.4278   15.8825 C.ar    1  UNL1        0.1785
     21 C          61.8999   86.9339   11.7224 C.3     1  UNL1        0.1354
     22 F          64.5692   81.8712    9.9214 F       1  UNL1       -0.2042
     23 C          63.9019   83.1369   10.3716 C.ar    1  UNL1        0.1401
     24 C          63.6956   83.3965   11.8345 C.ar    1  UNL1        0.0294
     25 C          63.0283   84.6622   12.2847 C.ar    1  UNL1       -0.0001
     26 C          62.5672   85.6683   11.2721 C.ar    1  UNL1        0.0006
     27 C          62.7735   85.4085    9.8092 C.ar    1  UNL1       -0.0001
     28 C          63.4408   84.1429    9.3590 C.ar    1  UNL1        0.0294
@<TRIPOS>BOND
     1    22    23    1
     2    23    24   ar
     3    24    25   ar
     4    25    26   ar
     5    26    21    1
     6    21     1    1
     7     1     2   ar
     8     2    10    1
     9    10    11    1
    10    11    12    1
    11    12    13    1
    12    13    16    1
    13    16    17   ar
    14    17    18   ar
    15    18    19   ar
    16    19    20   ar
    17    13    14    1
    18    14    15    1
    19     2     3   ar
    20     3     4   ar
    21     4     5   ar
    22     5     6   ar
    23     6     7   ar
    24     7     8   ar
    25     8     9   ar
    26    26    27   ar
    27    27    28   ar
    28    28    23   ar
    29     9     1   ar
    30    15    10    1
    31     9     4   ar
    32    20    16   ar
@<TRIPOS>MOLECULE
*****
 28 32 0 0 0
SMALL
GASTEIGER

@<TRIPOS>ATOM
      1 N          63.5295   83.7647   11.6595 N.ar    1  UNL1       -0.2954
      2 C          63.4798   84.2785   13.0679 C.ar    1  UNL1        0.2014
      3 N          63.1291   83.1308   13.9678 N.ar    1  UNL1       -0.2136
      4 C          62.9620   81.9077   13.1155 C.ar    1  UNL1        0.0999
      5 C          62.6165   80.4879   13.4542 C.ar    1  UNL1        0.0207
      6 C          62.5185   79.4600   12.3663 C.ar    1  UNL1        0.0016
      7 C          62.7659   79.8518   10.9397 C.ar    1  UNL1        0.0016
      8 C          63.1114   81.2716   10.6010 C.ar    1  UNL1        0.0188
      9 C          63.2095   82.2996   11.6889 C.ar    1  UNL1        0.0801
     10 N          63.7359   85.6917   13.5005 N.pl3   1  UNL1       -0.2794
     11 C          64.4144   85.9639   14.8102 C.3     1  UNL1        0.0955
     12 C          64.6705   87.3772   15.2428 C.3     1  UNL1        0.0442
     13 C          64.2480   88.5182   14.3656 C.3     1  UNL1        0.0904
     14 C          63.5695   88.2460   13.0558 C.3     1  UNL1        0.0442
     15 C          63.3135   86.8328   12.6233 C.3     1  UNL1        0.0955
     16 N          64.5041   89.9315   14.7982 N.ar    1  UNL1       -0.3096
     17 C          65.5386   90.8549   14.2262 C.ar    1  UNL1        0.0980
     18 C          65.4445   92.1636   14.9532 C.ar    1  UNL1        0.1193
     19 N          64.3519   92.0490   15.9745 N.ar    1  UNL1       -0.2223
     20 C          63.7707   90.6695   15.8786 C.ar    1  UNL1        0.1785
     21 C          63.8439   84.5741   10.4363 C.3     1  UNL1        0.1354
     22 F          59.3964   86.6208    6.9679 F       1  UNL1       -0.2042
     23 C          60.5083   86.1091    7.8350 C.ar    1  UNL1        0.1401
     24 C          60.4729   86.3436    9.3162 C.ar    1  UNL1        0.0294
     25 C          61.5848   85.8319   10.1832 C.ar    1  UNL1       -0.0001
     26 C          62.7321   85.0857    9.5692 C.ar    1  UNL1        0.0006
     27 C          62.7675   84.8513    8.0881 C.ar    1  UNL1       -0.0001
     28 C          61.6556   85.3630    7.2210 C.ar    1  UNL1        0.0294
@<TRIPOS>BOND
     1    22    23    1
     2    23    24   ar
     3    24    25   ar
     4    25    26   ar
     5    26    21    1
     6    21     1    1
     7     1     2   ar
     8     2    10    1
     9    10    11    1
    10    11    12    1
    11    12    13    1
    12    13    16    1
    13    16    17   ar
    14    17    18   ar
    15    18    19   ar
    16    19    20   ar
    17    13    14    1
    18    14    15    1
    19     2     3   ar
    20     3     4   ar
    21     4     5   ar
    22     5     6   ar
    23     6     7   ar
    24     7     8   ar
    25     8     9   ar
    26    26    27   ar
    27    27    28   ar
    28    28    23   ar
    29     9     1   ar
    30    15    10    1
    31     9     4   ar
    32    20    16   ar
@<TRIPOS>MOLECULE
*****
 28 32 0 0 0
SMALL
GASTEIGER

@<TRIPOS>ATOM
      1 N          62.3521   87.3908   10.3711 N.ar    1  UNL1       -0.2954
      2 C          62.1923   88.8185   10.8022 C.ar    1  UNL1        0.2014
      3 N          61.0043   89.3888   10.0858 N.ar    1  UNL1       -0.2136
      4 C          60.4298   88.3135    9.2119 C.ar    1  UNL1        0.0999
      5 C          59.2558   88.2993    8.2784 C.ar    1  UNL1        0.0207
      6 C          58.9149   87.0502    7.5212 C.ar    1  UNL1        0.0016
      7 C          59.7479   85.8153    7.6975 C.ar    1  UNL1        0.0016
      8 C          60.9219   85.8295    8.6310 C.ar    1  UNL1        0.0188
      9 C          61.2629   87.0786    9.3882 C.ar    1  UNL1        0.0801
     10 N          63.0670   89.5479   11.7784 N.pl3   1  UNL1       -0.2794
     11 C          63.5622   90.9268   11.4568 C.3     1  UNL1        0.0955
     12 C          64.4369   91.6562   12.4330 C.3     1  UNL1        0.0442
     13 C          64.8164   91.0068   13.7308 C.3     1  UNL1        0.0904
     14 C          64.3211   89.6279   14.0523 C.3     1  UNL1        0.0442
     15 C          63.4465   88.8985   13.0761 C.3     1  UNL1        0.0955
     16 N          65.6910   91.7362   14.7069 N.ar    1  UNL1       -0.3096
     17 C          67.1141   92.1508   14.4769 C.ar    1  UNL1        0.0980
     18 C          67.5988   92.8499   15.7123 C.ar    1  UNL1        0.1193
     19 N          66.4753   92.8674   16.7059 N.ar    1  UNL1       -0.2223
     20 C          65.2962   92.1791   16.0846 C.ar    1  UNL1        0.1785
     21 C          63.4147   86.4417   10.8403 C.3     1  UNL1        0.1354
     22 F          61.9441   81.7610   14.2940 F       1  UNL1       -0.2042
     23 C          62.3118   82.9312   13.4306 C.ar    1  UNL1        0.1401
     24 C          62.4780   82.7486   11.9511 C.ar    1  UNL1        0.0294
     25 C          62.8457   83.9188   11.0877 C.ar    1  UNL1       -0.0001
     26 C          63.0471   85.2716   11.7038 C.ar    1  UNL1        0.0006
     27 C          62.8808   85.4541   13.1833 C.ar    1  UNL1       -0.0001
     28 C          62.5132   84.2839   14.0467 C.ar    1  UNL1        0.0294
@<TRIPOS>BOND
     1    22    23    1
     2    23    24   ar
     3    24    25   ar
     4    25    26   ar
     5    26    21    1
     6    21     1    1
     7     1     2   ar
     8     2    10    1
     9    10    11    1
    10    11    12    1
    11    12    13    1
    12    13    16    1
    13    16    17   ar
    14    17    18   ar
    15    18    19   ar
    16    19    20   ar
    17    13    14    1
    18    14    15    1
    19     2     3   ar
    20     3     4   ar
    21     4     5   ar
    22     5     6   ar
    23     6     7   ar
    24     7     8   ar
    25     8     9   ar
    26    26    27   ar
    27    27    28   ar
    28    28    23   ar
    29     9     1   ar
    30    15    10    1
    31     9     4   ar
    32    20    16   ar
@<TRIPOS>MOLECULE
*****
 28 32 0 0 0
SMALL
GASTEIGER

@<TRIPOS>ATOM
      1 N          62.0656   87.0766   11.3603 N.ar    1  UNL1       -0.2954
      2 C          61.6881   86.7263    9.9515 C.ar    1  UNL1        0.2014
      3 N          62.2092   85.3501    9.6607 N.ar    1  UNL1       -0.2136
      4 C          62.9087   84.8499   10.8897 C.ar    1  UNL1        0.0999
      5 C          63.6151   83.5608   11.1880 C.ar    1  UNL1        0.0207
      6 C          64.2326   83.3387   12.5368 C.ar    1  UNL1        0.0016
      7 C          64.1438   84.4057   13.5873 C.ar    1  UNL1        0.0016
      8 C          63.4375   85.6949   13.2890 C.ar    1  UNL1        0.0188
      9 C          62.8200   85.9170   11.9402 C.ar    1  UNL1        0.0801
     10 N          60.9237   87.5988    9.0005 N.pl3   1  UNL1       -0.2794
     11 C          60.1343   86.9807    7.8849 C.3     1  UNL1        0.0955
     12 C          59.3700   87.8533    6.9339 C.3     1  UNL1        0.0442
     13 C          59.3950   89.3440    7.0986 C.3     1  UNL1        0.0904
     14 C          60.1844   89.9621    8.2143 C.3     1  UNL1        0.0442
     15 C          60.9487   89.0895    9.1652 C.3     1  UNL1        0.0955
     16 N          58.6306   90.2165    6.1476 N.ar    1  UNL1       -0.3096
     17 C          59.2217   91.2215    5.2039 C.ar    1  UNL1        0.0980
     18 C          58.0974   91.8634    4.4464 C.ar    1  UNL1        0.1193
     19 N          56.8113   91.2552    4.9220 N.ar    1  UNL1       -0.2223
     20 C          57.1409   90.2374    5.9734 C.ar    1  UNL1        0.1785
     21 C          61.7449   88.3611   12.0655 C.3     1  UNL1        0.1354
     22 F          66.0500   92.4402   12.9749 F       1  UNL1       -0.2042
     23 C          64.9737   91.4204   12.7476 C.ar    1  UNL1        0.1401
     24 C          64.1384   91.4764   11.5029 C.ar    1  UNL1        0.0294
     25 C          63.0621   90.4566   11.2756 C.ar    1  UNL1       -0.0001
     26 C          62.8212   89.3808   12.2929 C.ar    1  UNL1        0.0006
     27 C          63.6566   89.3249   13.5375 C.ar    1  UNL1       -0.0001
     28 C          64.7328   90.3447   13.7648 C.ar    1  UNL1        0.0294
@<TRIPOS>BOND
     1    22    23    1
     2    23    24   ar
     3    24    25   ar
     4    25    26   ar
     5    26    21    1
     6    21     1    1
     7     1     2   ar
     8     2    10    1
     9    10    11    1
    10    11    12    1
    11    12    13    1
    12    13    16    1
    13    16    17   ar
    14    17    18   ar
    15    18    19   ar
    16    19    20   ar
    17    13    14    1
    18    14    15    1
    19     2     3   ar
    20     3     4   ar
    21     4     5   ar
    22     5     6   ar
    23     6     7   ar
    24     7     8   ar
    25     8     9   ar
    26    26    27   ar
    27    27    28   ar
    28    28    23   ar
    29     9     1   ar
    30    15    10    1
    31     9     4   ar
    32    20    16   ar
