@<TRIPOS>MOLECULE
*****
 33 36 0 0 0
SMALL
GASTEIGER

@<TRIPOS>ATOM
      1 N          62.1506   86.5026   11.6859 N.pl3   1  UNL1       -0.2872
      2 C          62.5654   82.2829   13.1933 C.ar    1  UNL1        0.0715
      3 C          62.2554   83.3945   14.1515 C.ar    1  UNL1        0.0051
      4 C          62.1171   84.8011   13.6490 C.ar    1  UNL1        0.0148
      5 C          62.2888   85.0960   12.1884 C.ar    1  UNL1        0.0515
      6 C          62.5988   83.9844   11.2302 C.ar    1  UNL1        0.0148
      7 C          62.7371   82.5779   11.7327 C.ar    1  UNL1        0.0051
      8 F          62.8419   79.4698   14.1982 F       1  UNL1       -0.1659
      9 C          62.7036   80.8764   13.6957 C.3     1  UNL1        0.4186
     10 F          61.2265   80.8223   13.9510 F       1  UNL1       -0.1659
     11 F          64.1808   80.9304   13.4405 F       1  UNL1       -0.1659
     12 C          61.1663   86.8173   10.5987 C.ar    1  UNL1        0.0710
     13 C          61.2500   86.1042    9.2817 C.ar    1  UNL1        0.0180
     14 C          60.2656   86.4189    8.1945 C.ar    1  UNL1        0.0220
     15 C          59.1976   87.4467    8.4243 C.ar    1  UNL1        0.0990
     16 N          59.1138   88.1598    9.7413 N.ar    1  UNL1       -0.2410
     17 C          60.0981   87.8451   10.8285 C.ar    1  UNL1        0.1136
     18 C          62.9966   87.5945   12.2707 C.3     1  UNL1        0.0807
     19 C          63.7703   87.3497   13.5322 C.3     1  UNL1        0.0415
     20 C          64.6164   88.4416   14.1170 C.3     1  UNL1        0.0925
     21 N          64.6887   89.7783   13.4402 N.pl3   1  UNL1       -0.3062
     22 C          63.9151   90.0231   12.1787 C.3     1  UNL1        0.0925
     23 C          63.0690   88.9312   11.5939 C.3     1  UNL1        0.0415
     24 C          65.5348   90.8702   14.0251 C.ar    1  UNL1        0.0673
     25 C          65.2537   91.3775   15.4084 C.ar    1  UNL1        0.0176
     26 C          66.0998   92.4693   15.9931 C.ar    1  UNL1        0.0244
     27 C          67.2270   93.0539   15.1945 C.ar    1  UNL1        0.1527
     28 N          67.5081   92.5466   13.8113 N.ar    1  UNL1       -0.2386
     29 C          66.6621   91.4547   13.2265 C.ar    1  UNL1        0.1132
     30 C          68.0731   94.1458   15.7794 C.3     1  UNL1        0.4348
     31 F          68.9191   95.2377   16.3641 F       1  UNL1       -0.1644
     32 F          68.7185   93.1527   16.6998 F       1  UNL1       -0.1644
     33 F          67.4277   95.1388   14.8589 F       1  UNL1       -0.1644
@<TRIPOS>BOND
     1     8     9    1
     2     9    10    1
     3     9    11    1
     4     9     2    1
     5     2     3   ar
     6     3     4   ar
     7     4     5   ar
     8     5     1    1
     9     1    12    1
    10    12    13   ar
    11    13    14   ar
    12    14    15   ar
    13    15    16   ar
    14    16    17   ar
    15     1    18    1
    16    18    19    1
    17    19    20    1
    18    20    21    1
    19    21    24    1
    20    24    25   ar
    21    25    26   ar
    22    26    27   ar
    23    27    30    1
    24    30    31    1
    25    30    32    1
    26    30    33    1
    27    27    28   ar
    28    28    29   ar
    29    21    22    1
    30    22    23    1
    31     5     6   ar
    32     6     7   ar
    33     7     2   ar
    34    17    12   ar
    35    23    18    1
    36    29    24   ar
@<TRIPOS>MOLECULE
*****
 33 36 0 0 0
SMALL
GASTEIGER

@<TRIPOS>ATOM
      1 N          62.1582   86.5650   11.7225 N.pl3   1  UNL1       -0.2872
      2 C          62.5396   82.3440   13.2350 C.ar    1  UNL1        0.0715
      3 C          62.6990   82.6337   11.7719 C.ar    1  UNL1        0.0051
      4 C          62.5719   84.0408   11.2678 C.ar    1  UNL1        0.0148
      5 C          62.2853   85.1580   12.2267 C.ar    1  UNL1        0.0515
      6 C          62.1258   84.8683   13.6897 C.ar    1  UNL1        0.0148
      7 C          62.2530   83.4613   14.1939 C.ar    1  UNL1        0.0051
      8 F          62.7938   79.5300   14.2433 F       1  UNL1       -0.1659
      9 C          62.6667   80.9370   13.7391 C.3     1  UNL1        0.4186
     10 F          64.1376   80.9650   13.4463 F       1  UNL1       -0.1659
     11 F          61.1958   80.9090   14.0319 F       1  UNL1       -0.1659
     12 C          61.1760   86.8863   10.6353 C.ar    1  UNL1        0.0710
     13 C          61.2771   86.1987    9.3060 C.ar    1  UNL1        0.0180
     14 C          60.2949   86.5200    8.2188 C.ar    1  UNL1        0.0220
     15 C          59.2116   87.5289    8.4609 C.ar    1  UNL1        0.0990
     16 N          59.1105   88.2165    9.7901 N.ar    1  UNL1       -0.2410
     17 C          60.0927   87.8952   10.8773 C.ar    1  UNL1        0.1136
     18 C          63.0132   87.6508   12.3056 C.3     1  UNL1        0.0807
     19 C          63.7970   87.3966   13.5591 C.3     1  UNL1        0.0415
     20 C          64.6520   88.4823   14.1422 C.3     1  UNL1        0.0925
     21 N          64.7234   89.8223   13.4718 N.pl3   1  UNL1       -0.3062
     22 C          63.9397   90.0765   12.2183 C.3     1  UNL1        0.0925
     23 C          63.0846   88.9907   11.6352 C.3     1  UNL1        0.0415
     24 C          65.5785   90.9081   14.0549 C.ar    1  UNL1        0.0673
     25 C          65.2915   91.4312   15.4311 C.ar    1  UNL1        0.0176
     26 C          66.1466   92.5169   16.0141 C.ar    1  UNL1        0.0244
     27 C          67.2887   93.0795   15.2210 C.ar    1  UNL1        0.1527
     28 N          67.5757   92.5564   13.8448 N.ar    1  UNL1       -0.2386
     29 C          66.7206   91.4707   13.2618 C.ar    1  UNL1        0.1132
     30 C          68.1438   94.1653   15.8041 C.3     1  UNL1        0.4348
     31 F          68.9989   95.2509   16.3873 F       1  UNL1       -0.1644
     32 F          67.4877   95.1671   14.9010 F       1  UNL1       -0.1644
     33 F          68.7999   93.1634   16.7073 F       1  UNL1       -0.1644
@<TRIPOS>BOND
     1     8     9    1
     2     9    10    1
     3     9    11    1
     4     9     2    1
     5     2     3   ar
     6     3     4   ar
     7     4     5   ar
     8     5     1    1
     9     1    12    1
    10    12    13   ar
    11    13    14   ar
    12    14    15   ar
    13    15    16   ar
    14    16    17   ar
    15     1    18    1
    16    18    19    1
    17    19    20    1
    18    20    21    1
    19    21    24    1
    20    24    25   ar
    21    25    26   ar
    22    26    27   ar
    23    27    30    1
    24    30    31    1
    25    30    32    1
    26    30    33    1
    27    27    28   ar
    28    28    29   ar
    29    21    22    1
    30    22    23    1
    31     5     6   ar
    32     6     7   ar
    33     7     2   ar
    34    17    12   ar
    35    23    18    1
    36    29    24   ar
@<TRIPOS>MOLECULE
*****
 33 36 0 0 0
SMALL
GASTEIGER

@<TRIPOS>ATOM
      1 N          62.5273   84.3229   12.2684 N.pl3   1  UNL1       -0.2872
      2 C          62.8930   79.9745   11.1696 C.ar    1  UNL1        0.0715
      3 C          62.3320   80.3661   12.5044 C.ar    1  UNL1        0.0051
      4 C          62.2100   81.8156   12.8707 C.ar    1  UNL1        0.0148
      5 C          62.6492   82.8734   11.9022 C.ar    1  UNL1        0.0515
      6 C          63.2103   82.4818   10.5674 C.ar    1  UNL1        0.0148
      7 C          63.3322   81.0323   10.2011 C.ar    1  UNL1        0.0051
      8 F          63.1369   77.0755   10.4371 F       1  UNL1       -0.1659
      9 C          63.0149   78.5250   10.8034 C.3     1  UNL1        0.4186
     10 F          62.7464   78.1422   12.2286 F       1  UNL1       -0.1659
     11 F          63.2835   78.9077    9.3781 F       1  UNL1       -0.1659
     12 C          62.9813   84.7964   13.6173 C.ar    1  UNL1        0.0710
     13 C          64.2694   85.5532   13.7521 C.ar    1  UNL1        0.0180
     14 C          64.7234   86.0266   15.1012 C.ar    1  UNL1        0.0220
     15 C          63.8894   85.7433   16.3153 C.ar    1  UNL1        0.0990
     16 N          62.6013   84.9865   16.1805 N.ar    1  UNL1       -0.2410
     17 C          62.1473   84.5130   14.8316 C.ar    1  UNL1        0.1136
     18 C          61.9513   85.2989   11.2858 C.3     1  UNL1        0.0807
     19 C          61.1479   86.4681   11.7732 C.3     1  UNL1        0.0415
     20 C          60.5719   87.4441   10.7905 C.3     1  UNL1        0.0925
     21 N          60.7993   87.2510    9.3205 N.pl3   1  UNL1       -0.3062
     22 C          61.6027   86.0818    8.8331 C.3     1  UNL1        0.0925
     23 C          62.1787   85.1057    9.8158 C.3     1  UNL1        0.0415
     24 C          60.2233   88.2271    8.3378 C.ar    1  UNL1        0.0673
     25 C          59.4000   87.7334    7.1853 C.ar    1  UNL1        0.0176
     26 C          58.8240   88.7095    6.2027 C.ar    1  UNL1        0.0244
     27 C          59.0713   90.1792    6.3727 C.ar    1  UNL1        0.1527
     28 N          59.8946   90.6728    7.5253 N.ar    1  UNL1       -0.2386
     29 C          60.4706   89.6967    8.5078 C.ar    1  UNL1        0.1132
     30 C          58.4953   91.1553    5.3900 C.3     1  UNL1        0.4348
     31 F          57.9194   92.1313    4.4074 F       1  UNL1       -0.1644
     32 F          57.1250   90.5991    5.6407 F       1  UNL1       -0.1644
     33 F          59.8656   91.7114    5.1393 F       1  UNL1       -0.1644
@<TRIPOS>BOND
     1     8     9    1
     2     9    10    1
     3     9    11    1
     4     9     2    1
     5     2     3   ar
     6     3     4   ar
     7     4     5   ar
     8     5     1    1
     9     1    12    1
    10    12    13   ar
    11    13    14   ar
    12    14    15   ar
    13    15    16   ar
    14    16    17   ar
    15     1    18    1
    16    18    19    1
    17    19    20    1
    18    20    21    1
    19    21    24    1
    20    24    25   ar
    21    25    26   ar
    22    26    27   ar
    23    27    30    1
    24    30    31    1
    25    30    32    1
    26    30    33    1
    27    27    28   ar
    28    28    29   ar
    29    21    22    1
    30    22    23    1
    31     5     6   ar
    32     6     7   ar
    33     7     2   ar
    34    17    12   ar
    35    23    18    1
    36    29    24   ar
@<TRIPOS>MOLECULE
*****
 33 36 0 0 0
SMALL
GASTEIGER

@<TRIPOS>ATOM
      1 N          62.4808   88.9404   12.4078 N.pl3   1  UNL1       -0.2872
      2 C          66.0175   91.1645   14.0795 C.ar    1  UNL1        0.0715
      3 C          65.4156   91.5869   12.7722 C.ar    1  UNL1        0.0051
      4 C          64.2367   90.8455   12.2150 C.ar    1  UNL1        0.0148
      5 C          63.6597   89.6818   12.9651 C.ar    1  UNL1        0.0515
      6 C          64.2616   89.2594   14.2724 C.ar    1  UNL1        0.0148
      7 C          65.4405   90.0008   14.8297 C.ar    1  UNL1        0.0051
      8 F          68.3754   92.6472   15.1940 F       1  UNL1       -0.1659
      9 C          67.1965   91.9059   14.6368 C.3     1  UNL1        0.4186
     10 F          66.4129   92.2200   15.8767 F       1  UNL1       -0.1659
     11 F          67.9801   91.5917   13.3969 F       1  UNL1       -0.1659
     12 C          61.2131   89.6770   12.0910 C.ar    1  UNL1        0.0710
     13 C          59.9412   89.3213   12.8021 C.ar    1  UNL1        0.0180
     14 C          58.6735   90.0579   12.4852 C.ar    1  UNL1        0.0220
     15 C          58.6777   91.1501   11.4572 C.ar    1  UNL1        0.0990
     16 N          59.9496   91.5058   10.7460 N.ar    1  UNL1       -0.2410
     17 C          61.2173   90.7693   11.0629 C.ar    1  UNL1        0.1136
     18 C          62.5695   87.4625   12.1675 C.3     1  UNL1        0.0807
     19 C          63.3327   86.5919   13.1213 C.3     1  UNL1        0.0415
     20 C          63.4214   85.1140   12.8810 C.3     1  UNL1        0.0925
     21 N          62.7470   84.5065   11.6868 N.pl3   1  UNL1       -0.3062
     22 C          61.9839   85.3770   10.7329 C.3     1  UNL1        0.0925
     23 C          61.8951   86.8550   10.9733 C.3     1  UNL1        0.0415
     24 C          62.8358   83.0285   11.4464 C.ar    1  UNL1        0.0673
     25 C          62.3818   82.0679   12.5052 C.ar    1  UNL1        0.0176
     26 C          62.4706   80.5900   12.2648 C.ar    1  UNL1        0.0244
     27 C          63.0134   80.0727   10.9657 C.ar    1  UNL1        0.1527
     28 N          63.4674   81.0333    9.9069 N.ar    1  UNL1       -0.2386
     29 C          63.3786   82.5112   10.1473 C.ar    1  UNL1        0.1132
     30 C          63.1022   78.5947   10.7253 C.3     1  UNL1        0.4348
     31 F          63.1909   77.1168   10.4850 F       1  UNL1       -0.1644
     32 F          62.7594   78.3402   12.1633 F       1  UNL1       -0.1644
     33 F          63.4449   78.8491    9.2874 F       1  UNL1       -0.1644
@<TRIPOS>BOND
     1     8     9    1
     2     9    10    1
     3     9    11    1
     4     9     2    1
     5     2     3   ar
     6     3     4   ar
     7     4     5   ar
     8     5     1    1
     9     1    12    1
    10    12    13   ar
    11    13    14   ar
    12    14    15   ar
    13    15    16   ar
    14    16    17   ar
    15     1    18    1
    16    18    19    1
    17    19    20    1
    18    20    21    1
    19    21    24    1
    20    24    25   ar
    21    25    26   ar
    22    26    27   ar
    23    27    30    1
    24    30    31    1
    25    30    32    1
    26    30    33    1
    27    27    28   ar
    28    28    29   ar
    29    21    22    1
    30    22    23    1
    31     5     6   ar
    32     6     7   ar
    33     7     2   ar
    34    17    12   ar
    35    23    18    1
    36    29    24   ar
@<TRIPOS>MOLECULE
*****
 33 36 0 0 0
SMALL
GASTEIGER

@<TRIPOS>ATOM
      1 N          62.5586   86.4005   12.4587 N.pl3   1  UNL1       -0.2872
      2 C          60.0476   87.0142    8.7752 C.ar    1  UNL1        0.0715
      3 C          61.2136   86.0712    8.7396 C.ar    1  UNL1        0.0051
      4 C          62.0506   85.8666    9.9674 C.ar    1  UNL1        0.0148
      5 C          61.7216   86.6050   11.2309 C.ar    1  UNL1        0.0515
      6 C          60.5557   87.5481   11.2666 C.ar    1  UNL1        0.0148
      7 C          59.7187   87.7526   10.0387 C.ar    1  UNL1        0.0051
      8 F          58.3736   87.4234    6.3196 F       1  UNL1       -0.1659
      9 C          59.2106   87.2188    7.5474 C.3     1  UNL1        0.4186
     10 F          59.0253   88.6614    7.9141 F       1  UNL1       -0.1659
     11 F          59.3960   85.7762    7.1806 F       1  UNL1       -0.1659
     12 C          62.5455   85.0763   13.1633 C.ar    1  UNL1        0.0710
     13 C          62.7572   83.8110   12.3861 C.ar    1  UNL1        0.0180
     14 C          62.7440   82.4869   13.0907 C.ar    1  UNL1        0.0220
     15 C          62.5192   82.4281   14.5726 C.ar    1  UNL1        0.0990
     16 N          62.3074   83.6934   15.3498 N.ar    1  UNL1       -0.2410
     17 C          62.3206   85.0175   14.6452 C.ar    1  UNL1        0.1136
     18 C          63.4088   87.5200   12.9820 C.3     1  UNL1        0.0807
     19 C          64.2638   87.3081   14.1962 C.3     1  UNL1        0.0415
     20 C          65.1140   88.4277   14.7194 C.3     1  UNL1        0.0925
     21 N          65.1092   89.7591   14.0285 N.pl3   1  UNL1       -0.3062
     22 C          64.2542   89.9710   12.8144 C.3     1  UNL1        0.0925
     23 C          63.4040   88.8514   12.2911 C.3     1  UNL1        0.0415
     24 C          65.9594   90.8786   14.5519 C.ar    1  UNL1        0.0673
     25 C          67.2716   91.1932   13.8968 C.ar    1  UNL1        0.0176
     26 C          68.1217   92.3127   14.4201 C.ar    1  UNL1        0.0244
     27 C          67.6597   93.1177   15.5985 C.ar    1  UNL1        0.1527
     28 N          66.3475   92.8031   16.2536 N.ar    1  UNL1       -0.2386
     29 C          65.4973   91.6836   15.7302 C.ar    1  UNL1        0.1132
     30 C          68.5099   94.2372   16.1218 C.3     1  UNL1        0.4348
     31 F          69.3600   95.3568   16.6451 F       1  UNL1       -0.1644
     32 F          69.2939   93.2577   16.9439 F       1  UNL1       -0.1644
     33 F          67.7259   95.2168   15.2998 F       1  UNL1       -0.1644
@<TRIPOS>BOND
     1     8     9    1
     2     9    10    1
     3     9    11    1
     4     9     2    1
     5     2     3   ar
     6     3     4   ar
     7     4     5   ar
     8     5     1    1
     9     1    12    1
    10    12    13   ar
    11    13    14   ar
    12    14    15   ar
    13    15    16   ar
    14    16    17   ar
    15     1    18    1
    16    18    19    1
    17    19    20    1
    18    20    21    1
    19    21    24    1
    20    24    25   ar
    21    25    26   ar
    22    26    27   ar
    23    27    30    1
    24    30    31    1
    25    30    32    1
    26    30    33    1
    27    27    28   ar
    28    28    29   ar
    29    21    22    1
    30    22    23    1
    31     5     6   ar
    32     6     7   ar
    33     7     2   ar
    34    17    12   ar
    35    23    18    1
    36    29    24   ar
