@<TRIPOS>MOLECULE
*****
 25 28 0 0 0
SMALL
GASTEIGER

@<TRIPOS>ATOM
      1 N          63.7905   84.0260   15.2218 N.3     1  UNL1       -0.2665
      2 C          64.6829   85.2027   14.9585 C.3     1  UNL1        0.0899
      3 C          64.3473   86.5436   15.5409 C.3     1  UNL1        0.0900
      4 N          63.1194   86.7079   16.3867 N.3     1  UNL1       -0.2624
      5 C          62.2271   85.5313   16.6500 C.3     1  UNL1        0.0900
      6 C          62.5627   84.1903   16.0675 C.3     1  UNL1        0.0899
      7 C          64.1261   82.6851   14.6394 C.3     1  UNL1        0.0992
      8 C          63.5337   81.9294   10.2430 C.ar    1  UNL1       -0.0000
      9 C          62.8878   81.0277   11.2527 C.ar    1  UNL1       -0.0003
     10 C          63.0853   81.2795   12.7182 C.ar    1  UNL1       -0.0029
     11 C          63.9287   82.4332   13.1739 C.ar    1  UNL1       -0.0061
     12 C          64.5746   83.3350   12.1642 C.ar    1  UNL1       -0.0029
     13 C          64.3771   83.0831   10.6987 C.ar    1  UNL1       -0.0003
     14 C          62.7838   88.0489   16.9691 C.3     1  UNL1        0.1615
     15 C          63.2075   89.3015   16.2609 C.ar    1  UNL1        0.2529
     16 N          63.5366   89.4213   14.8024 N.ar    1  UNL1       -0.1896
     17 C          63.9091   90.8480   14.5270 C.ar    1  UNL1        0.2033
     18 N          63.8101   91.6099   15.8154 N.ar    1  UNL1       -0.0560
     19 O          63.3766   90.6541   16.8870 O.2     1  UNL1       -0.3356
     20 C          64.3100   91.4135   13.1968 C.ar    1  UNL1        0.0391
     21 C          63.5324   91.0565   11.9648 C.ar    1  UNL1        0.0032
     22 C          63.9332   91.6220   10.6347 C.ar    1  UNL1        0.0001
     23 C          65.1120   92.5446   10.5364 C.ar    1  UNL1        0.0000
     24 C          65.8897   92.9016   11.7683 C.ar    1  UNL1        0.0001
     25 C          65.4887   92.3361   13.0986 C.ar    1  UNL1        0.0032
@<TRIPOS>BOND
     1     8     9   ar
     2     9    10   ar
     3    10    11   ar
     4    11     7    1
     5     7     1    1
     6     1     2    1
     7     2     3    1
     8     3     4    1
     9     4    14    1
    10    14    15    1
    11    15    16   ar
    12    16    17   ar
    13    17    20    1
    14    20    21   ar
    15    21    22   ar
    16    22    23   ar
    17    23    24   ar
    18    24    25   ar
    19    17    18   ar
    20    18    19   ar
    21     4     5    1
    22     5     6    1
    23    11    12   ar
    24    12    13   ar
    25    13     8   ar
    26     6     1    1
    27    19    15   ar
    28    25    20   ar
@<TRIPOS>MOLECULE
*****
 25 28 0 0 0
SMALL
GASTEIGER

@<TRIPOS>ATOM
      1 N          64.4224   91.6806   11.8982 N.3     1  UNL1       -0.2665
      2 C          63.7720   91.6575   10.5467 C.3     1  UNL1        0.0899
      3 C          62.7944   90.5729   10.2033 C.3     1  UNL1        0.0900
      4 N          62.4672   89.5114   11.2114 N.3     1  UNL1       -0.2624
      5 C          63.1176   89.5345   12.5628 C.3     1  UNL1        0.0900
      6 C          64.0952   90.6192   12.9063 C.3     1  UNL1        0.0899
      7 C          65.4000   92.7652   12.2415 C.3     1  UNL1        0.0992
      8 C          67.9505   94.5983    9.0190 C.ar    1  UNL1       -0.0000
      9 C          66.9537   95.4418    9.7572 C.ar    1  UNL1       -0.0003
     10 C          66.1035   94.8307   10.8314 C.ar    1  UNL1       -0.0029
     11 C          66.2501   93.3763   11.1674 C.ar    1  UNL1       -0.0061
     12 C          67.2470   92.5328   10.4292 C.ar    1  UNL1       -0.0029
     13 C          68.0971   93.1439    9.3551 C.ar    1  UNL1       -0.0003
     14 C          61.4896   88.4267   10.8680 C.3     1  UNL1        0.1615
     15 C          61.9478   87.0005   10.7924 C.ar    1  UNL1        0.2529
     16 N          61.9262   86.0068   11.9158 N.ar    1  UNL1       -0.1896
     17 C          62.4730   84.7096   11.3979 C.ar    1  UNL1        0.2033
     18 N          62.8326   84.9016    9.9543 N.ar    1  UNL1       -0.0560
     19 O          62.5080   86.3174    9.5801 O.2     1  UNL1       -0.3356
     20 C          62.6324   83.4429   12.1853 C.ar    1  UNL1        0.0391
     21 C          62.7878   82.1318   11.4734 C.ar    1  UNL1        0.0032
     22 C          62.9471   80.8651   12.2606 C.ar    1  UNL1        0.0001
     23 C          62.9511   80.9094   13.7601 C.ar    1  UNL1        0.0000
     24 C          62.7956   82.2205   14.4720 C.ar    1  UNL1        0.0001
     25 C          62.6363   83.4872   13.6846 C.ar    1  UNL1        0.0032
@<TRIPOS>BOND
     1     8     9   ar
     2     9    10   ar
     3    10    11   ar
     4    11     7    1
     5     7     1    1
     6     1     2    1
     7     2     3    1
     8     3     4    1
     9     4    14    1
    10    14    15    1
    11    15    16   ar
    12    16    17   ar
    13    17    20    1
    14    20    21   ar
    15    21    22   ar
    16    22    23   ar
    17    23    24   ar
    18    24    25   ar
    19    17    18   ar
    20    18    19   ar
    21     4     5    1
    22     5     6    1
    23    11    12   ar
    24    12    13   ar
    25    13     8   ar
    26     6     1    1
    27    19    15   ar
    28    25    20   ar
@<TRIPOS>MOLECULE
*****
 25 28 0 0 0
SMALL
GASTEIGER

@<TRIPOS>ATOM
      1 N          64.8912   92.0474   11.9825 N.3     1  UNL1       -0.2665
      2 C          64.3216   91.2520   13.1196 C.3     1  UNL1        0.0899
      3 C          63.0871   90.4255   12.9124 C.3     1  UNL1        0.0900
      4 N          62.4222   90.3944   11.5682 N.3     1  UNL1       -0.2624
      5 C          62.9917   91.1898   10.4312 C.3     1  UNL1        0.0900
      6 C          64.2262   92.0164   10.6383 C.3     1  UNL1        0.0899
      7 C          66.1256   92.8739   12.1897 C.3     1  UNL1        0.0992
      8 C          67.4714   95.7474    8.9987 C.ar    1  UNL1       -0.0000
      9 C          67.8292   94.2941    8.8987 C.ar    1  UNL1       -0.0003
     10 C          67.3806   93.3363    9.9623 C.ar    1  UNL1       -0.0029
     11 C          66.5742   93.8317   11.1260 C.ar    1  UNL1       -0.0061
     12 C          66.2164   95.2850   11.2261 C.ar    1  UNL1       -0.0029
     13 C          66.6650   96.2428   10.1624 C.ar    1  UNL1       -0.0003
     14 C          61.1876   89.5679   11.3611 C.3     1  UNL1        0.1615
     15 C          61.3082   88.1230   10.9769 C.ar    1  UNL1        0.2529
     16 N          62.2594   87.1285   11.5736 N.ar    1  UNL1       -0.1896
     17 C          62.0378   85.8097   10.8941 C.ar    1  UNL1        0.2033
     18 N          60.9495   85.9891    9.8775 N.ar    1  UNL1       -0.0560
     19 O          60.4986   87.4188    9.9287 O.2     1  UNL1       -0.3356
     20 C          62.7750   84.5352   11.1809 C.ar    1  UNL1        0.0391
     21 C          63.5617   83.8631   10.0949 C.ar    1  UNL1        0.0032
     22 C          64.2988   82.5887   10.3816 C.ar    1  UNL1        0.0001
     23 C          64.2494   81.9862   11.7545 C.ar    1  UNL1        0.0000
     24 C          63.4628   82.6583   12.8406 C.ar    1  UNL1        0.0001
     25 C          62.7256   83.9328   12.5538 C.ar    1  UNL1        0.0032
@<TRIPOS>BOND
     1     8     9   ar
     2     9    10   ar
     3    10    11   ar
     4    11     7    1
     5     7     1    1
     6     1     2    1
     7     2     3    1
     8     3     4    1
     9     4    14    1
    10    14    15    1
    11    15    16   ar
    12    16    17   ar
    13    17    20    1
    14    20    21   ar
    15    21    22   ar
    16    22    23   ar
    17    23    24   ar
    18    24    25   ar
    19    17    18   ar
    20    18    19   ar
    21     4     5    1
    22     5     6    1
    23    11    12   ar
    24    12    13   ar
    25    13     8   ar
    26     6     1    1
    27    19    15   ar
    28    25    20   ar
@<TRIPOS>MOLECULE
*****
 25 28 0 0 0
SMALL
GASTEIGER

@<TRIPOS>ATOM
      1 N          63.6165   86.2634   15.8324 N.3     1  UNL1       -0.2665
      2 C          64.2394   86.8018   14.5785 C.3     1  UNL1        0.0899
      3 C          64.3124   88.2830   14.3535 C.3     1  UNL1        0.0900
      4 N          63.7627   89.2259   15.3825 N.3     1  UNL1       -0.2624
      5 C          63.1399   88.6876   16.6364 C.3     1  UNL1        0.0900
      6 C          63.0668   87.2064   16.8614 C.3     1  UNL1        0.0899
      7 C          63.5435   84.7822   16.0574 C.3     1  UNL1        0.0992
      8 C          63.2304   81.9858   12.5457 C.ar    1  UNL1       -0.0000
      9 C          64.4169   82.8938   12.6779 C.ar    1  UNL1       -0.0003
     10 C          64.5213   83.8260   13.8485 C.ar    1  UNL1       -0.0029
     11 C          63.4391   83.8501   14.8868 C.ar    1  UNL1       -0.0061
     12 C          62.2525   82.9421   14.7546 C.ar    1  UNL1       -0.0029
     13 C          62.1482   82.0099   13.5841 C.ar    1  UNL1       -0.0003
     14 C          63.8358   90.7072   15.1575 C.3     1  UNL1        0.1615
     15 C          64.9968   91.2962   14.4124 C.ar    1  UNL1        0.2529
     16 N          64.9341   91.9749   13.0762 N.ar    1  UNL1       -0.1896
     17 C          66.3228   92.4081   12.7107 C.ar    1  UNL1        0.2033
     18 N          67.2439   91.9972   13.8210 N.ar    1  UNL1       -0.0560
     19 O          66.4244   91.3100   14.8727 O.2     1  UNL1       -0.3356
     20 C          66.7207   93.1263   11.4553 C.ar    1  UNL1        0.0391
     21 C          67.5654   92.4310   10.4291 C.ar    1  UNL1        0.0032
     22 C          67.9633   93.1490    9.1738 C.ar    1  UNL1        0.0001
     23 C          67.5164   94.5625    8.9444 C.ar    1  UNL1        0.0000
     24 C          66.6717   95.2578    9.9706 C.ar    1  UNL1        0.0001
     25 C          66.2738   94.5396   11.2260 C.ar    1  UNL1        0.0032
@<TRIPOS>BOND
     1     8     9   ar
     2     9    10   ar
     3    10    11   ar
     4    11     7    1
     5     7     1    1
     6     1     2    1
     7     2     3    1
     8     3     4    1
     9     4    14    1
    10    14    15    1
    11    15    16   ar
    12    16    17   ar
    13    17    20    1
    14    20    21   ar
    15    21    22   ar
    16    22    23   ar
    17    23    24   ar
    18    24    25   ar
    19    17    18   ar
    20    18    19   ar
    21     4     5    1
    22     5     6    1
    23    11    12   ar
    24    12    13   ar
    25    13     8   ar
    26     6     1    1
    27    19    15   ar
    28    25    20   ar
@<TRIPOS>MOLECULE
*****
 25 28 0 0 0
SMALL
GASTEIGER

@<TRIPOS>ATOM
      1 N          63.0998   86.8094   12.5130 N.3     1  UNL1       -0.2665
      2 C          62.8249   88.1429   11.8833 C.3     1  UNL1        0.0899
      3 C          63.2967   89.3998   12.5523 C.3     1  UNL1        0.0900
      4 N          64.0435   89.3233   13.8510 N.3     1  UNL1       -0.2624
      5 C          64.3184   87.9899   14.4807 C.3     1  UNL1        0.0900
      6 C          63.8465   86.7330   13.8117 C.3     1  UNL1        0.0899
      7 C          62.6280   85.5526   11.8440 C.3     1  UNL1        0.0992
      8 C          61.4854   85.6127    7.4919 C.ar    1  UNL1       -0.0000
      9 C          60.5633   86.2022    8.5176 C.ar    1  UNL1       -0.0003
     10 C          60.9441   86.1822    9.9683 C.ar    1  UNL1       -0.0029
     11 C          62.2471   85.5726   10.3933 C.ar    1  UNL1       -0.0061
     12 C          63.1692   84.9831    9.3676 C.ar    1  UNL1       -0.0029
     13 C          62.7883   85.0031    7.9169 C.ar    1  UNL1       -0.0003
     14 C          64.5153   90.5803   14.5200 C.3     1  UNL1        0.1615
     15 C          65.4824   91.4862   13.8173 C.ar    1  UNL1        0.2529
     16 N          65.1528   92.4314   12.7002 N.ar    1  UNL1       -0.1896
     17 C          66.4156   93.1355   12.3008 C.ar    1  UNL1        0.2033
     18 N          67.5258   92.6254   13.1710 N.ar    1  UNL1       -0.0560
     19 O          66.9491   91.6061   14.1082 O.2     1  UNL1       -0.3356
     20 C          66.5455   94.1683   11.2207 C.ar    1  UNL1        0.0391
     21 C          67.0390   93.7731    9.8605 C.ar    1  UNL1        0.0032
     22 C          67.1689   94.8058    8.7805 C.ar    1  UNL1        0.0001
     23 C          66.8052   96.2339    9.0606 C.ar    1  UNL1        0.0000
     24 C          66.3117   96.6291   10.4209 C.ar    1  UNL1        0.0001
     25 C          66.1818   95.5963   11.5009 C.ar    1  UNL1        0.0032
@<TRIPOS>BOND
     1     8     9   ar
     2     9    10   ar
     3    10    11   ar
     4    11     7    1
     5     7     1    1
     6     1     2    1
     7     2     3    1
     8     3     4    1
     9     4    14    1
    10    14    15    1
    11    15    16   ar
    12    16    17   ar
    13    17    20    1
    14    20    21   ar
    15    21    22   ar
    16    22    23   ar
    17    23    24   ar
    18    24    25   ar
    19    17    18   ar
    20    18    19   ar
    21     4     5    1
    22     5     6    1
    23    11    12   ar
    24    12    13   ar
    25    13     8   ar
    26     6     1    1
    27    19    15   ar
    28    25    20   ar
@<TRIPOS>MOLECULE
*****
 25 28 0 0 0
SMALL
GASTEIGER

@<TRIPOS>ATOM
      1 N          64.9358   92.0449   12.0074 N.3     1  UNL1       -0.2665
      2 C          64.2975   91.2379   13.0989 C.3     1  UNL1        0.0899
      3 C          63.0611   90.4375   12.8149 C.3     1  UNL1        0.0900
      4 N          62.4630   90.4440   11.4393 N.3     1  UNL1       -0.2624
      5 C          63.1013   91.2510   10.3478 C.3     1  UNL1        0.0900
      6 C          64.3377   92.0514   10.6318 C.3     1  UNL1        0.0899
      7 C          66.1722   92.8453   12.2914 C.3     1  UNL1        0.0992
      8 C          68.3564   92.3050   16.1885 C.ar    1  UNL1       -0.0000
      9 C          66.9860   92.9146   16.1751 C.ar    1  UNL1       -0.0003
     10 C          66.2579   93.0947   14.8760 C.ar    1  UNL1       -0.0029
     11 C          66.9003   92.6652   13.5904 C.ar    1  UNL1       -0.0061
     12 C          68.2707   92.0556   13.6038 C.ar    1  UNL1       -0.0029
     13 C          68.9988   91.8755   14.9029 C.ar    1  UNL1       -0.0003
     14 C          61.2266   89.6436   11.1553 C.3     1  UNL1        0.1615
     15 C          61.3377   88.1864   10.8174 C.ar    1  UNL1        0.2529
     16 N          62.2773   87.2036   11.4507 N.ar    1  UNL1       -0.1896
     17 C          62.0490   85.8660   10.8116 C.ar    1  UNL1        0.2033
     18 N          60.9683   86.0220    9.7831 N.ar    1  UNL1       -0.0560
     19 O          60.5286   87.4561    9.7867 O.2     1  UNL1       -0.3356
     20 C          62.7742   84.5953   11.1427 C.ar    1  UNL1        0.0391
     21 C          62.6997   84.0288   12.5296 C.ar    1  UNL1        0.0032
     22 C          63.4248   82.7583   12.8608 C.ar    1  UNL1        0.0001
     23 C          64.2245   82.0540   11.8049 C.ar    1  UNL1        0.0000
     24 C          64.2989   82.6205   10.4180 C.ar    1  UNL1        0.0001
     25 C          63.5738   83.8911   10.0869 C.ar    1  UNL1        0.0032
@<TRIPOS>BOND
     1     8     9   ar
     2     9    10   ar
     3    10    11   ar
     4    11     7    1
     5     7     1    1
     6     1     2    1
     7     2     3    1
     8     3     4    1
     9     4    14    1
    10    14    15    1
    11    15    16   ar
    12    16    17   ar
    13    17    20    1
    14    20    21   ar
    15    21    22   ar
    16    22    23   ar
    17    23    24   ar
    18    24    25   ar
    19    17    18   ar
    20    18    19   ar
    21     4     5    1
    22     5     6    1
    23    11    12   ar
    24    12    13   ar
    25    13     8   ar
    26     6     1    1
    27    19    15   ar
    28    25    20   ar
@<TRIPOS>MOLECULE
*****
 25 28 0 0 0
SMALL
GASTEIGER

@<TRIPOS>ATOM
      1 N          64.8114   91.8179   12.5835 N.3     1  UNL1       -0.2665
      2 C          65.4999   91.6323   13.9032 C.3     1  UNL1        0.0899
      3 C          65.1915   90.4316   14.7477 C.3     1  UNL1        0.0900
      4 N          64.1947   89.4164   14.2725 N.3     1  UNL1       -0.2624
      5 C          63.5063   89.6019   12.9528 C.3     1  UNL1        0.0900
      6 C          63.8147   90.8027   12.1082 C.3     1  UNL1        0.0899
      7 C          65.1198   93.0186   11.7390 C.3     1  UNL1        0.0992
      8 C          68.7423   93.0214    9.0692 C.ar    1  UNL1       -0.0000
      9 C          67.6860   94.0731    8.9013 C.ar    1  UNL1       -0.0003
     10 C          66.4785   94.0721    9.7912 C.ar    1  UNL1       -0.0029
     11 C          66.3273   93.0195   10.8491 C.ar    1  UNL1       -0.0061
     12 C          67.3836   91.9679   11.0170 C.ar    1  UNL1       -0.0029
     13 C          68.5911   91.9689   10.1271 C.ar    1  UNL1       -0.0003
     14 C          63.8864   88.2156   15.1170 C.3     1  UNL1        0.1615
     15 C          64.2948   86.8485   14.6544 C.ar    1  UNL1        0.2529
     16 N          63.5110   85.9574   13.7370 N.ar    1  UNL1       -0.1896
     17 C          64.2904   84.6906   13.5436 C.ar    1  UNL1        0.2033
     18 N          65.5561   84.7986   14.3415 N.ar    1  UNL1       -0.0560
     19 O          65.5587   86.1322   15.0280 O.2     1  UNL1       -0.3356
     20 C          63.8769   83.5210   12.7003 C.ar    1  UNL1        0.0391
     21 C          63.0035   82.4489   13.2814 C.ar    1  UNL1        0.0032
     22 C          62.5900   81.2793   12.4383 C.ar    1  UNL1        0.0001
     23 C          63.0499   81.1818   11.0138 C.ar    1  UNL1        0.0000
     24 C          63.9234   82.2538   10.4326 C.ar    1  UNL1        0.0001
     25 C          64.3369   83.4234   11.2759 C.ar    1  UNL1        0.0032
@<TRIPOS>BOND
     1     8     9   ar
     2     9    10   ar
     3    10    11   ar
     4    11     7    1
     5     7     1    1
     6     1     2    1
     7     2     3    1
     8     3     4    1
     9     4    14    1
    10    14    15    1
    11    15    16   ar
    12    16    17   ar
    13    17    20    1
    14    20    21   ar
    15    21    22   ar
    16    22    23   ar
    17    23    24   ar
    18    24    25   ar
    19    17    18   ar
    20    18    19   ar
    21     4     5    1
    22     5     6    1
    23    11    12   ar
    24    12    13   ar
    25    13     8   ar
    26     6     1    1
    27    19    15   ar
    28    25    20   ar
@<TRIPOS>MOLECULE
*****
 25 28 0 0 0
SMALL
GASTEIGER

@<TRIPOS>ATOM
      1 N          65.1660   92.6398   11.9492 N.3     1  UNL1       -0.2665
      2 C          65.0123   91.7058   13.1129 C.3     1  UNL1        0.0899
      3 C          64.1347   90.4953   12.9923 C.3     1  UNL1        0.0900
      4 N          63.4108   90.2187   11.7079 N.3     1  UNL1       -0.2624
      5 C          63.5645   91.1527   10.5443 C.3     1  UNL1        0.0900
      6 C          64.4421   92.3632   10.6649 C.3     1  UNL1        0.0899
      7 C          66.0435   93.8503   12.0699 C.3     1  UNL1        0.0992
      8 C          67.0945   96.2418    8.4058 C.ar    1  UNL1       -0.0000
      9 C          66.2535   96.8550    9.4859 C.ar    1  UNL1       -0.0003
     10 C          65.9032   96.0578   10.7072 C.ar    1  UNL1       -0.0029
     11 C          66.3938   94.6474   10.8485 C.ar    1  UNL1       -0.0061
     12 C          67.2348   94.0342    9.7684 C.ar    1  UNL1       -0.0029
     13 C          67.5851   94.8314    8.5470 C.ar    1  UNL1       -0.0003
     14 C          62.5333   89.0082   11.5873 C.3     1  UNL1        0.1615
     15 C          62.9242   87.7280   12.2641 C.ar    1  UNL1        0.2529
     16 N          62.5613   86.3448   11.8114 N.ar    1  UNL1       -0.1896
     17 C          63.1595   85.3681   12.7800 C.ar    1  UNL1        0.2033
     18 N          63.8923   86.1477   13.8314 N.ar    1  UNL1       -0.0560
     19 O          63.7468   87.6061   13.5126 O.2     1  UNL1       -0.3356
     20 C          63.0452   83.8741   12.7095 C.ar    1  UNL1        0.0391
     21 C          62.9615   83.0679   13.9717 C.ar    1  UNL1        0.0032
     22 C          62.8472   81.5740   13.9014 C.ar    1  UNL1        0.0001
     23 C          62.8165   80.8861   12.5686 C.ar    1  UNL1        0.0000
     24 C          62.9001   81.6922   11.3065 C.ar    1  UNL1        0.0001
     25 C          63.0145   83.1862   11.3769 C.ar    1  UNL1        0.0032
@<TRIPOS>BOND
     1     8     9   ar
     2     9    10   ar
     3    10    11   ar
     4    11     7    1
     5     7     1    1
     6     1     2    1
     7     2     3    1
     8     3     4    1
     9     4    14    1
    10    14    15    1
    11    15    16   ar
    12    16    17   ar
    13    17    20    1
    14    20    21   ar
    15    21    22   ar
    16    22    23   ar
    17    23    24   ar
    18    24    25   ar
    19    17    18   ar
    20    18    19   ar
    21     4     5    1
    22     5     6    1
    23    11    12   ar
    24    12    13   ar
    25    13     8   ar
    26     6     1    1
    27    19    15   ar
    28    25    20   ar
@<TRIPOS>MOLECULE
*****
 25 28 0 0 0
SMALL
GASTEIGER

@<TRIPOS>ATOM
      1 N          61.1937   87.9411   11.0216 N.3     1  UNL1       -0.2665
      2 C          60.7461   89.3067   11.4515 C.3     1  UNL1        0.0899
      3 C          61.5597   90.0853   12.4424 C.3     1  UNL1        0.0900
      4 N          62.8209   89.4983   13.0033 N.3     1  UNL1       -0.2624
      5 C          63.2685   88.1327   12.5735 C.3     1  UNL1        0.0900
      6 C          62.4549   87.3541   11.5826 C.3     1  UNL1        0.0899
      7 C          60.3801   87.1625   10.0307 C.3     1  UNL1        0.0992
      8 C          62.4335   84.7064    6.8683 C.ar    1  UNL1       -0.0000
      9 C          63.1591   85.0590    8.1329 C.ar    1  UNL1       -0.0003
     10 C          62.4747   85.8777    9.1870 C.ar    1  UNL1       -0.0029
     11 C          61.0646   86.3438    8.9766 C.ar    1  UNL1       -0.0061
     12 C          60.3390   85.9912    7.7120 C.ar    1  UNL1       -0.0029
     13 C          61.0234   85.1725    6.6579 C.ar    1  UNL1       -0.0003
     14 C          63.6345   90.2769   13.9943 C.3     1  UNL1        0.1615
     15 C          64.7854   91.1165   13.5248 C.ar    1  UNL1        0.2529
     16 N          64.8177   91.9506   12.2786 N.ar    1  UNL1       -0.1896
     17 C          66.1583   92.6191   12.2027 C.ar    1  UNL1        0.2033
     18 N          66.9547   92.1982   13.4022 N.ar    1  UNL1       -0.0560
     19 O          66.1062   91.2695   14.2193 O.2     1  UNL1       -0.3356
     20 C          66.6213   93.5459   11.1179 C.ar    1  UNL1        0.0391
     21 C          66.3346   95.0151   11.2136 C.ar    1  UNL1        0.0032
     22 C          66.7976   95.9418   10.1289 C.ar    1  UNL1        0.0001
     23 C          67.5474   95.3994    8.9483 C.ar    1  UNL1        0.0000
     24 C          67.8341   93.9301    8.8527 C.ar    1  UNL1        0.0001
     25 C          67.3711   93.0034    9.9375 C.ar    1  UNL1        0.0032
@<TRIPOS>BOND
     1     8     9   ar
     2     9    10   ar
     3    10    11   ar
     4    11     7    1
     5     7     1    1
     6     1     2    1
     7     2     3    1
     8     3     4    1
     9     4    14    1
    10    14    15    1
    11    15    16   ar
    12    16    17   ar
    13    17    20    1
    14    20    21   ar
    15    21    22   ar
    16    22    23   ar
    17    23    24   ar
    18    24    25   ar
    19    17    18   ar
    20    18    19   ar
    21     4     5    1
    22     5     6    1
    23    11    12   ar
    24    12    13   ar
    25    13     8   ar
    26     6     1    1
    27    19    15   ar
    28    25    20   ar
