@<TRIPOS>MOLECULE
*****
 28 31 0 0 0
SMALL
GASTEIGER

@<TRIPOS>ATOM
      1 C          63.5509   88.3184   13.1958 C.ar    1  UNL1        0.0912
      2 C          64.1090   89.2196   14.2571 C.ar    1  UNL1        0.0466
      3 C          64.1183   90.7052   14.0507 C.ar    1  UNL1        0.1631
      4 C          63.5694   91.2898   12.7830 C.ar    1  UNL1        0.1193
      5 N          63.0112   90.3886   11.7217 N.ar    1  UNL1       -0.2846
      6 C          62.4061   90.6739   10.3792 C.ar    1  UNL1        0.1023
      7 C          62.0229   89.3645    9.7558 C.ar    1  UNL1        0.1195
      8 N          62.3911   88.2700   10.7131 N.ar    1  UNL1       -0.2247
      9 C          63.0019   88.9029   11.9282 C.ar    1  UNL1        0.1524
     10 N          62.6375   85.9664   12.5764 N.am    1  UNL1       -0.2657
     11 C          63.5416   86.8327   13.4022 C.2     1  UNL1        0.2536
     12 O          64.4365   86.2133   14.4346 O.2     1  UNL1       -0.2697
     13 H          62.0502   86.3728   11.8989 H       1  UNL1        0.1566
     14 C          62.6008   80.0236   13.4021 C.3     1  UNL1        0.0327
     15 C          62.6100   81.5092   13.1957 C.ar    1  UNL1       -0.0026
     16 C          62.8386   82.0746   11.8253 C.ar    1  UNL1        0.0001
     17 C          62.8478   83.5603   11.6189 C.ar    1  UNL1        0.0342
     18 C          62.6283   84.4806   12.7829 C.ar    1  UNL1        0.1344
     19 N          62.3997   83.9152   14.1533 N.ar    1  UNL1       -0.2293
     20 C          62.3905   82.4296   14.3597 C.ar    1  UNL1        0.0960
     21 O          64.6765   91.6064   15.1120 O.3     1  UNL1       -0.4503
     22 C          66.1237   91.9996   15.0770 C.ar    1  UNL1        0.1667
     23 C          66.7092   92.8057   16.1983 C.ar    1  UNL1        0.1364
     24 N          68.1563   93.1989   16.1633 N.ar    1  UNL1       -0.2368
     25 C          69.0179   92.7861   15.0070 C.ar    1  UNL1        0.1286
     26 C          68.4324   91.9800   13.8857 C.ar    1  UNL1        0.1623
     27 F          69.2940   91.5670   12.7293 F       1  UNL1       -0.2024
     28 C          66.9853   91.5868   13.9207 C.ar    1  UNL1        0.0703
@<TRIPOS>BOND
     1    14    15    1
     2    15    16   ar
     3    16    17   ar
     4    17    18   ar
     5    18    10    1
     6    10    11   am
     7    11    12    2
     8    11     1    1
     9     1     2   ar
    10     2     3   ar
    11     3    21    1
    12    21    22    1
    13    22    23   ar
    14    23    24   ar
    15    24    25   ar
    16    25    26   ar
    17    26    27    1
    18    26    28   ar
    19     3     4   ar
    20     4     5   ar
    21     5     6   ar
    22     6     7   ar
    23     7     8   ar
    24     8     9   ar
    25    18    19   ar
    26    19    20   ar
    27    20    15   ar
    28     9     1   ar
    29    28    22   ar
    30     9     5   ar
    31    10    13    1
@<TRIPOS>MOLECULE
*****
 28 31 0 0 0
SMALL
GASTEIGER

@<TRIPOS>ATOM
      1 C          63.9041   90.9581   12.5234 C.ar    1  UNL1        0.0912
      2 C          64.9540   91.9537   12.1278 C.ar    1  UNL1        0.0466
      3 C          65.7694   92.6426   13.1815 C.ar    1  UNL1        0.1631
      4 C          65.5350   92.3359   14.6310 C.ar    1  UNL1        0.1193
      5 N          64.4852   91.3403   15.0267 N.ar    1  UNL1       -0.2846
      6 C          64.0320   90.8382   16.3655 C.ar    1  UNL1        0.1023
      7 C          62.9365   89.8389   16.1392 C.ar    1  UNL1        0.1195
      8 N          62.7126   89.7235   14.6605 N.ar    1  UNL1       -0.2247
      9 C          63.6697   90.6514   13.9729 C.ar    1  UNL1        0.1524
     10 N          62.5326   88.9001   11.7274 N.am    1  UNL1       -0.2657
     11 C          63.0887   90.2692   11.4696 C.2     1  UNL1        0.2536
     12 O          62.8293   90.9494   10.1581 O.2     1  UNL1       -0.2697
     13 H          62.7029   88.4537   12.5881 H       1  UNL1        0.1566
     14 C          59.2711   86.1447    7.5120 C.3     1  UNL1        0.0327
     15 C          60.0865   86.8335    8.5657 C.ar    1  UNL1       -0.0026
     16 C          61.4555   86.3244    8.9068 C.ar    1  UNL1        0.0001
     17 C          62.2709   87.0133    9.9607 C.ar    1  UNL1        0.0342
     18 C          61.7172   88.2113   10.6735 C.ar    1  UNL1        0.1344
     19 N          60.3481   88.7204   10.3324 N.ar    1  UNL1       -0.2293
     20 C          59.5328   88.0316    9.2786 C.ar    1  UNL1        0.0960
     21 O          66.8194   93.6382   12.7857 O.3     1  UNL1       -0.4503
     22 C          67.0695   93.9279   11.3354 C.ar    1  UNL1        0.1667
     23 C          66.5629   95.2019   10.7268 C.ar    1  UNL1        0.1364
     24 N          66.8131   95.4916    9.2765 N.ar    1  UNL1       -0.2368
     25 C          67.5699   94.5073    8.4347 C.ar    1  UNL1        0.1286
     26 C          68.0765   93.2334    9.0433 C.ar    1  UNL1        0.1623
     27 F          68.8333   92.2491    8.2016 F       1  UNL1       -0.2024
     28 C          67.8263   92.9437   10.4937 C.ar    1  UNL1        0.0703
@<TRIPOS>BOND
     1    14    15    1
     2    15    16   ar
     3    16    17   ar
     4    17    18   ar
     5    18    10    1
     6    10    11   am
     7    11    12    2
     8    11     1    1
     9     1     2   ar
    10     2     3   ar
    11     3    21    1
    12    21    22    1
    13    22    23   ar
    14    23    24   ar
    15    24    25   ar
    16    25    26   ar
    17    26    27    1
    18    26    28   ar
    19     3     4   ar
    20     4     5   ar
    21     5     6   ar
    22     6     7   ar
    23     7     8   ar
    24     8     9   ar
    25    18    19   ar
    26    19    20   ar
    27    20    15   ar
    28     9     1   ar
    29    28    22   ar
    30     9     5   ar
    31    10    13    1
@<TRIPOS>MOLECULE
*****
 28 31 0 0 0
SMALL
GASTEIGER

@<TRIPOS>ATOM
      1 C          62.7727   84.7620   12.2490 C.ar    1  UNL1        0.0912
      2 C          63.1599   85.5501   13.4651 C.ar    1  UNL1        0.0466
      3 C          63.6897   84.8451   14.6784 C.ar    1  UNL1        0.1631
      4 C          63.8323   83.3518   14.6757 C.ar    1  UNL1        0.1193
      5 N          63.4451   82.5637   13.4596 N.ar    1  UNL1       -0.2846
      6 C          63.4745   81.0931   13.1653 C.ar    1  UNL1        0.1023
      7 C          62.9628   80.8894   11.7701 C.ar    1  UNL1        0.1195
      8 N          62.6172   82.2340   11.2021 N.ar    1  UNL1       -0.2247
      9 C          62.9152   83.2688   12.2463 C.ar    1  UNL1        0.1524
     10 N          61.1519   86.4867   11.1775 N.am    1  UNL1       -0.2657
     11 C          62.2428   85.4671   11.0357 C.2     1  UNL1        0.2536
     12 O          62.8039   85.1524    9.6806 O.2     1  UNL1       -0.2697
     13 H          60.7836   86.6932   12.0668 H       1  UNL1        0.1566
     14 C          59.0328   89.3071    6.3241 C.3     1  UNL1        0.0327
     15 C          59.5626   88.6020    7.5374 C.ar    1  UNL1       -0.0026
     16 C          60.2401   89.3841    8.6233 C.ar    1  UNL1        0.0001
     17 C          60.7698   88.6790    9.8366 C.ar    1  UNL1        0.0342
     18 C          60.6221   87.1918    9.9641 C.ar    1  UNL1        0.1344
     19 N          59.9445   86.4097    8.8782 N.ar    1  UNL1       -0.2293
     20 C          59.4148   87.1147    7.6649 C.ar    1  UNL1        0.0960
     21 O          64.0770   85.6332   15.8946 O.3     1  UNL1       -0.4503
     22 C          63.9056   87.1234   15.9085 C.ar    1  UNL1        0.1667
     23 C          63.1405   87.7799   17.0192 C.ar    1  UNL1        0.1364
     24 N          62.9691   89.2700   17.0331 N.ar    1  UNL1       -0.2368
     25 C          63.5627   90.1036   15.9364 C.ar    1  UNL1        0.1286
     26 C          64.3278   89.4470   14.8257 C.ar    1  UNL1        0.1623
     27 F          64.9215   90.2805   13.7289 F       1  UNL1       -0.2024
     28 C          64.4992   87.9569   14.8118 C.ar    1  UNL1        0.0703
@<TRIPOS>BOND
     1    14    15    1
     2    15    16   ar
     3    16    17   ar
     4    17    18   ar
     5    18    10    1
     6    10    11   am
     7    11    12    2
     8    11     1    1
     9     1     2   ar
    10     2     3   ar
    11     3    21    1
    12    21    22    1
    13    22    23   ar
    14    23    24   ar
    15    24    25   ar
    16    25    26   ar
    17    26    27    1
    18    26    28   ar
    19     3     4   ar
    20     4     5   ar
    21     5     6   ar
    22     6     7   ar
    23     7     8   ar
    24     8     9   ar
    25    18    19   ar
    26    19    20   ar
    27    20    15   ar
    28     9     1   ar
    29    28    22   ar
    30     9     5   ar
    31    10    13    1
@<TRIPOS>MOLECULE
*****
 28 31 0 0 0
SMALL
GASTEIGER

@<TRIPOS>ATOM
      1 C          63.3255   88.7887   12.6310 C.ar    1  UNL1        0.0912
      2 C          64.3802   89.7813   13.0214 C.ar    1  UNL1        0.0466
      3 C          64.2730   91.2069   12.5677 C.ar    1  UNL1        0.1631
      4 C          63.1111   91.6401   11.7235 C.ar    1  UNL1        0.1193
      5 N          62.0565   90.6474   11.3331 N.ar    1  UNL1       -0.2846
      6 C          60.8063   90.7808   10.5151 C.ar    1  UNL1        0.1023
      7 C          60.1409   89.4375   10.4632 C.ar    1  UNL1        0.1195
      8 N          60.9798   88.4739   11.2492 N.ar    1  UNL1       -0.2247
      9 C          62.1637   89.2217   11.7869 C.ar    1  UNL1        0.1524
     10 N          62.7698   86.2729   12.2959 N.am    1  UNL1       -0.2657
     11 C          63.4327   87.3629   13.0847 C.2     1  UNL1        0.2536
     12 O          64.2030   87.0272   14.3274 O.2     1  UNL1       -0.2697
     13 H          62.2643   86.4932   11.4803 H       1  UNL1        0.1566
     14 C          63.1990   80.5702   14.1109 C.3     1  UNL1        0.0327
     15 C          63.0917   81.9958   13.6571 C.ar    1  UNL1       -0.0026
     16 C          63.6451   82.4021   12.3235 C.ar    1  UNL1        0.0001
     17 C          63.5378   83.8278   11.8698 C.ar    1  UNL1        0.0342
     18 C          62.8771   84.8472   12.7497 C.ar    1  UNL1        0.1344
     19 N          62.3236   84.4409   14.0833 N.ar    1  UNL1       -0.2293
     20 C          62.4309   83.0153   14.5370 C.ar    1  UNL1        0.0960
     21 O          65.3277   92.1996   12.9581 O.3     1  UNL1       -0.4503
     22 C          66.0826   92.9472   11.8993 C.ar    1  UNL1        0.1667
     23 C          66.1222   94.4465   11.9236 C.ar    1  UNL1        0.1364
     24 N          66.8771   95.1942   10.8648 N.ar    1  UNL1       -0.2368
     25 C          67.5925   94.4425    9.7817 C.ar    1  UNL1        0.1286
     26 C          67.5530   92.9433    9.7573 C.ar    1  UNL1        0.1623
     27 F          68.2684   92.1915    8.6742 F       1  UNL1       -0.2024
     28 C          66.7981   92.1956   10.8162 C.ar    1  UNL1        0.0703
@<TRIPOS>BOND
     1    14    15    1
     2    15    16   ar
     3    16    17   ar
     4    17    18   ar
     5    18    10    1
     6    10    11   am
     7    11    12    2
     8    11     1    1
     9     1     2   ar
    10     2     3   ar
    11     3    21    1
    12    21    22    1
    13    22    23   ar
    14    23    24   ar
    15    24    25   ar
    16    25    26   ar
    17    26    27    1
    18    26    28   ar
    19     3     4   ar
    20     4     5   ar
    21     5     6   ar
    22     6     7   ar
    23     7     8   ar
    24     8     9   ar
    25    18    19   ar
    26    19    20   ar
    27    20    15   ar
    28     9     1   ar
    29    28    22   ar
    30     9     5   ar
    31    10    13    1
@<TRIPOS>MOLECULE
*****
 28 31 0 0 0
SMALL
GASTEIGER

@<TRIPOS>ATOM
      1 C          62.9283   88.3368   12.2810 C.ar    1  UNL1        0.0912
      2 C          63.1802   86.8783   12.0377 C.ar    1  UNL1        0.0466
      3 C          62.2311   86.0845   11.1898 C.ar    1  UNL1        0.1631
      4 C          61.0300   86.7492   10.5851 C.ar    1  UNL1        0.1193
      5 N          60.7780   88.2077   10.8285 N.ar    1  UNL1       -0.2846
      6 C          59.6869   89.1283   10.3681 C.ar    1  UNL1        0.1023
      7 C          59.9617   90.4910   10.9315 C.ar    1  UNL1        0.1195
      8 N          61.2226   90.4127   11.7401 N.ar    1  UNL1       -0.2247
      9 C          61.7272   89.0015   11.6764 C.ar    1  UNL1        0.1524
     10 N          64.2082   90.5464   12.7601 N.am    1  UNL1       -0.2657
     11 C          63.8774   89.1306   13.1290 C.2     1  UNL1        0.2536
     12 O          64.4957   88.5086   14.3460 O.2     1  UNL1       -0.2697
     13 H          63.8025   90.9546   11.9614 H       1  UNL1        0.1566
     14 C          68.0050   93.7212   16.1519 C.3     1  UNL1        0.0327
     15 C          67.0558   92.9275   15.3040 C.ar    1  UNL1       -0.0026
     16 C          67.3990   92.6262   13.8752 C.ar    1  UNL1        0.0001
     17 C          66.4498   91.8325   13.0273 C.ar    1  UNL1        0.0342
     18 C          65.1574   91.3401   13.6081 C.ar    1  UNL1        0.1344
     19 N          64.8143   91.6414   15.0369 N.ar    1  UNL1       -0.2293
     20 C          65.7634   92.4351   15.8848 C.ar    1  UNL1        0.0960
     21 O          62.4831   84.6259   10.9464 O.3     1  UNL1       -0.4503
     22 C          62.4930   83.6642   12.0975 C.ar    1  UNL1        0.1667
     23 C          62.4892   84.1803   13.5060 C.ar    1  UNL1        0.1364
     24 N          62.4992   83.2186   14.6571 N.ar    1  UNL1       -0.2368
     25 C          62.5129   81.7409   14.3998 C.ar    1  UNL1        0.1286
     26 C          62.5166   81.2249   12.9914 C.ar    1  UNL1        0.1623
     27 F          62.5303   79.7471   12.7340 F       1  UNL1       -0.2024
     28 C          62.5067   82.1866   11.8403 C.ar    1  UNL1        0.0703
@<TRIPOS>BOND
     1    14    15    1
     2    15    16   ar
     3    16    17   ar
     4    17    18   ar
     5    18    10    1
     6    10    11   am
     7    11    12    2
     8    11     1    1
     9     1     2   ar
    10     2     3   ar
    11     3    21    1
    12    21    22    1
    13    22    23   ar
    14    23    24   ar
    15    24    25   ar
    16    25    26   ar
    17    26    27    1
    18    26    28   ar
    19     3     4   ar
    20     4     5   ar
    21     5     6   ar
    22     6     7   ar
    23     7     8   ar
    24     8     9   ar
    25    18    19   ar
    26    19    20   ar
    27    20    15   ar
    28     9     1   ar
    29    28    22   ar
    30     9     5   ar
    31    10    13    1
@<TRIPOS>MOLECULE
*****
 28 31 0 0 0
SMALL
GASTEIGER

@<TRIPOS>ATOM
      1 C          61.9757   87.7159   11.1087 C.ar    1  UNL1        0.0912
      2 C          62.6626   88.7126   11.9945 C.ar    1  UNL1        0.0466
      3 C          62.5244   90.1807   11.7198 C.ar    1  UNL1        0.1631
      4 C          61.6993   90.6522   10.5592 C.ar    1  UNL1        0.1193
      5 N          61.0124   89.6555    9.6734 N.ar    1  UNL1       -0.2846
      6 C          60.1394   89.8208    8.4648 C.ar    1  UNL1        0.1023
      7 C          59.7381   88.4547    7.9927 C.ar    1  UNL1        0.1195
      8 N          60.3630   87.4452    8.9094 N.ar    1  UNL1       -0.2247
      9 C          61.1506   88.1873    9.9482 C.ar    1  UNL1        0.1524
     10 N          62.7105   85.7799   12.6778 N.am    1  UNL1       -0.2657
     11 C          62.1139   86.2478   11.3835 C.2     1  UNL1        0.2536
     12 O          61.6554   85.2475   10.3639 O.2     1  UNL1       -0.2697
     13 H          63.0114   86.4364   13.3469 H       1  UNL1        0.1566
     14 C          63.2633   79.9073   13.7763 C.3     1  UNL1        0.0327
     15 C          63.1251   81.3754   13.5017 C.ar    1  UNL1       -0.0026
     16 C          63.8027   81.9824   12.3090 C.ar    1  UNL1        0.0001
     17 C          63.6645   83.4505   12.0344 C.ar    1  UNL1        0.0342
     18 C          62.8487   84.3117   12.9525 C.ar    1  UNL1        0.1344
     19 N          62.1710   83.7047   14.1451 N.ar    1  UNL1       -0.2293
     20 C          62.3092   82.2366   14.4197 C.ar    1  UNL1        0.0960
     21 O          63.2114   91.1775   12.6057 O.3     1  UNL1       -0.4503
     22 C          64.5858   91.6677   12.2583 C.ar    1  UNL1        0.1667
     23 C          64.8794   92.1562   10.8708 C.ar    1  UNL1        0.1364
     24 N          66.2538   92.6464   10.5234 N.ar    1  UNL1       -0.2368
     25 C          67.3347   92.6480   11.5635 C.ar    1  UNL1        0.1286
     26 C          67.0411   92.1595   12.9509 C.ar    1  UNL1        0.1623
     27 F          68.1219   92.1610   13.9911 F       1  UNL1       -0.2024
     28 C          65.6667   91.6693   13.2983 C.ar    1  UNL1        0.0703
@<TRIPOS>BOND
     1    14    15    1
     2    15    16   ar
     3    16    17   ar
     4    17    18   ar
     5    18    10    1
     6    10    11   am
     7    11    12    2
     8    11     1    1
     9     1     2   ar
    10     2     3   ar
    11     3    21    1
    12    21    22    1
    13    22    23   ar
    14    23    24   ar
    15    24    25   ar
    16    25    26   ar
    17    26    27    1
    18    26    28   ar
    19     3     4   ar
    20     4     5   ar
    21     5     6   ar
    22     6     7   ar
    23     7     8   ar
    24     8     9   ar
    25    18    19   ar
    26    19    20   ar
    27    20    15   ar
    28     9     1   ar
    29    28    22   ar
    30     9     5   ar
    31    10    13    1
@<TRIPOS>MOLECULE
*****
 28 31 0 0 0
SMALL
GASTEIGER

@<TRIPOS>ATOM
      1 C          63.8067   86.8648   14.4118 C.ar    1  UNL1        0.0912
      2 C          64.0985   88.0893   13.5961 C.ar    1  UNL1        0.0466
      3 C          64.0139   89.4478   14.2261 C.ar    1  UNL1        0.1631
      4 C          63.6375   89.5820   15.6720 C.ar    1  UNL1        0.1193
      5 N          63.3458   88.3575   16.4877 N.ar    1  UNL1       -0.2846
      6 C          62.9528   88.1786   17.9242 C.ar    1  UNL1        0.1023
      7 C          62.7945   86.7094   18.1819 C.ar    1  UNL1        0.1195
      8 N          63.0897   85.9803   16.9047 N.ar    1  UNL1       -0.2247
      9 C          63.4304   86.9988   15.8576 C.ar    1  UNL1        0.1524
     10 N          62.8367   85.0623   12.8118 N.am    1  UNL1       -0.2657
     11 C          63.8913   85.5062   13.7817 C.2     1  UNL1        0.2536
     12 O          65.0306   84.5914   14.1215 O.2     1  UNL1       -0.2697
     13 H          62.0890   85.6626   12.5887 H       1  UNL1        0.1566
     14 C          63.1756   79.6279   10.2913 C.3     1  UNL1        0.0327
     15 C          63.0909   80.9864   10.9214 C.ar    1  UNL1       -0.0026
     16 C          63.6085   82.1875   10.1868 C.ar    1  UNL1        0.0001
     17 C          63.5237   83.5461   10.8170 C.ar    1  UNL1        0.0342
     18 C          62.9214   83.7036   12.1817 C.ar    1  UNL1        0.1344
     19 N          62.4039   82.5026   12.9162 N.ar    1  UNL1       -0.2293
     20 C          62.4886   81.1441   12.2861 C.ar    1  UNL1        0.0960
     21 O          64.3056   90.6725   13.4104 O.3     1  UNL1       -0.4503
     22 C          65.4061   91.6042   13.8236 C.ar    1  UNL1        0.1667
     23 C          65.7276   92.8045   12.9834 C.ar    1  UNL1        0.1364
     24 N          66.8281   93.7363   13.3966 N.ar    1  UNL1       -0.2368
     25 C          67.6071   93.4678   14.6500 C.ar    1  UNL1        0.1286
     26 C          67.2855   92.2676   15.4903 C.ar    1  UNL1        0.1623
     27 F          68.0644   91.9990   16.7438 F       1  UNL1       -0.2024
     28 C          66.1850   91.3358   15.0770 C.ar    1  UNL1        0.0703
@<TRIPOS>BOND
     1    14    15    1
     2    15    16   ar
     3    16    17   ar
     4    17    18   ar
     5    18    10    1
     6    10    11   am
     7    11    12    2
     8    11     1    1
     9     1     2   ar
    10     2     3   ar
    11     3    21    1
    12    21    22    1
    13    22    23   ar
    14    23    24   ar
    15    24    25   ar
    16    25    26   ar
    17    26    27    1
    18    26    28   ar
    19     3     4   ar
    20     4     5   ar
    21     5     6   ar
    22     6     7   ar
    23     7     8   ar
    24     8     9   ar
    25    18    19   ar
    26    19    20   ar
    27    20    15   ar
    28     9     1   ar
    29    28    22   ar
    30     9     5   ar
    31    10    13    1
@<TRIPOS>MOLECULE
*****
 28 31 0 0 0
SMALL
GASTEIGER

@<TRIPOS>ATOM
      1 C          63.4357   88.8813   12.8539 C.ar    1  UNL1        0.0912
      2 C          63.6369   89.7499   11.6476 C.ar    1  UNL1        0.0466
      3 C          63.9600   91.2048   11.8165 C.ar    1  UNL1        0.1631
      4 C          64.0819   91.7913   13.1918 C.ar    1  UNL1        0.1193
      5 N          63.8806   90.9228   14.3980 N.ar    1  UNL1       -0.2846
      6 C          63.9369   91.2175   15.8677 C.ar    1  UNL1        0.1023
      7 C          63.6485   89.9447   16.6071 C.ar    1  UNL1        0.1195
      8 N          63.4141   88.8632   15.5944 N.ar    1  UNL1       -0.2247
      9 C          63.5575   89.4678   14.2291 C.ar    1  UNL1        0.1524
     10 N          63.6868   86.4155   13.6328 N.am    1  UNL1       -0.2657
     11 C          63.1126   87.4263   12.6849 C.2     1  UNL1        0.2536
     12 O          62.2152   86.9820   11.5680 O.2     1  UNL1       -0.2697
     13 H          64.2758   86.7070   14.3659 H       1  UNL1        0.1566
     14 C          62.3943   80.5956   12.9565 C.3     1  UNL1        0.0327
     15 C          62.7174   82.0505   13.1256 C.ar    1  UNL1       -0.0026
     16 C          63.4370   82.7904   12.0372 C.ar    1  UNL1        0.0001
     17 C          63.7601   84.2454   12.2063 C.ar    1  UNL1        0.0342
     18 C          63.3636   84.9605   13.4638 C.ar    1  UNL1        0.1344
     19 N          62.6440   84.2206   14.5522 N.ar    1  UNL1       -0.2293
     20 C          62.3209   82.7657   14.3832 C.ar    1  UNL1        0.0960
     21 O          64.1613   92.0734   10.6102 O.3     1  UNL1       -0.4503
     22 C          65.4569   92.8051   10.4206 C.ar    1  UNL1        0.1667
     23 C          65.5567   94.2586   10.7775 C.ar    1  UNL1        0.1364
     24 N          66.8523   94.9902   10.5878 N.ar    1  UNL1       -0.2368
     25 C          68.0483   94.2684   10.0413 C.ar    1  UNL1        0.1286
     26 C          67.9485   92.8149    9.6844 C.ar    1  UNL1        0.1623
     27 F          69.1444   92.0929    9.1379 F       1  UNL1       -0.2024
     28 C          66.6528   92.0832    9.8741 C.ar    1  UNL1        0.0703
@<TRIPOS>BOND
     1    14    15    1
     2    15    16   ar
     3    16    17   ar
     4    17    18   ar
     5    18    10    1
     6    10    11   am
     7    11    12    2
     8    11     1    1
     9     1     2   ar
    10     2     3   ar
    11     3    21    1
    12    21    22    1
    13    22    23   ar
    14    23    24   ar
    15    24    25   ar
    16    25    26   ar
    17    26    27    1
    18    26    28   ar
    19     3     4   ar
    20     4     5   ar
    21     5     6   ar
    22     6     7   ar
    23     7     8   ar
    24     8     9   ar
    25    18    19   ar
    26    19    20   ar
    27    20    15   ar
    28     9     1   ar
    29    28    22   ar
    30     9     5   ar
    31    10    13    1
@<TRIPOS>MOLECULE
*****
 28 31 0 0 0
SMALL
GASTEIGER

@<TRIPOS>ATOM
      1 C          62.2801   87.7293   10.9733 C.ar    1  UNL1        0.0912
      2 C          62.8749   86.3580   11.0983 C.ar    1  UNL1        0.0466
      3 C          62.4998   85.2857   10.1188 C.ar    1  UNL1        0.1631
      4 C          61.5299   85.5846    9.0143 C.ar    1  UNL1        0.1193
      5 N          60.9351   86.9560    8.8893 N.ar    1  UNL1       -0.2846
      6 C          59.9600   87.5418    7.9115 C.ar    1  UNL1        0.1023
      7 C          59.7325   88.9761    8.2867 C.ar    1  UNL1        0.1195
      8 N          60.5669   89.2769    9.4964 N.ar    1  UNL1       -0.2247
      9 C          61.3102   88.0283    9.8688 C.ar    1  UNL1        0.1524
     10 N          63.4488   88.4545   13.1774 N.am    1  UNL1       -0.2657
     11 C          62.6552   88.8016   11.9528 C.2     1  UNL1        0.2536
     12 O          62.2366   90.2211   11.7077 O.2     1  UNL1       -0.2697
     13 H          63.7235   87.5229   13.3383 H       1  UNL1        0.1566
     14 C          64.9492   92.7441   17.0950 C.3     1  UNL1        0.0327
     15 C          64.5741   91.6718   16.1157 C.ar    1  UNL1       -0.0026
     16 C          65.3190   91.5456   14.8199 C.ar    1  UNL1        0.0001
     17 C          64.9439   90.4732   13.8405 C.ar    1  UNL1        0.0342
     18 C          63.8239   89.5270   14.1569 C.ar    1  UNL1        0.1344
     19 N          63.0789   89.6532   15.4527 N.ar    1  UNL1       -0.2293
     20 C          63.4540   90.7255   16.4320 C.ar    1  UNL1        0.0960
     21 O          63.0946   83.9143   10.2438 O.3     1  UNL1       -0.4503
     22 C          62.9154   83.1316   11.5108 C.ar    1  UNL1        0.1667
     23 C          62.9998   81.6342   11.4858 C.ar    1  UNL1        0.1364
     24 N          62.8205   80.8516   12.7528 N.ar    1  UNL1       -0.2368
     25 C          62.5568   81.5664   14.0449 C.ar    1  UNL1        0.1286
     26 C          62.4723   83.0638   14.0700 C.ar    1  UNL1        0.1623
     27 F          62.2086   83.7787   15.3621 F       1  UNL1       -0.2024
     28 C          62.6516   83.8464   12.8029 C.ar    1  UNL1        0.0703
@<TRIPOS>BOND
     1    14    15    1
     2    15    16   ar
     3    16    17   ar
     4    17    18   ar
     5    18    10    1
     6    10    11   am
     7    11    12    2
     8    11     1    1
     9     1     2   ar
    10     2     3   ar
    11     3    21    1
    12    21    22    1
    13    22    23   ar
    14    23    24   ar
    15    24    25   ar
    16    25    26   ar
    17    26    27    1
    18    26    28   ar
    19     3     4   ar
    20     4     5   ar
    21     5     6   ar
    22     6     7   ar
    23     7     8   ar
    24     8     9   ar
    25    18    19   ar
    26    19    20   ar
    27    20    15   ar
    28     9     1   ar
    29    28    22   ar
    30     9     5   ar
    31    10    13    1
