@<TRIPOS>MOLECULE
*****
 33 36 0 0 0
SMALL
GASTEIGER

@<TRIPOS>ATOM
      1 N          64.9812   90.6541   12.7482 N.am    1  UNL1       -0.2681
      2 C          63.9328   89.9753   11.9174 C.2     1  UNL1        0.3077
      3 O          63.2123   90.7406   10.8473 O.2     1  UNL1       -0.2522
      4 N          63.6049   88.5313   12.1569 N.am    1  UNL1       -0.2640
      5 C          64.2384   87.6422   13.1855 C.3     1  UNL1        0.0950
      6 C          63.6109   86.2843   13.0740 C.3     1  UNL1        0.0219
      7 C          63.6147   84.8955   13.6409 C.3     1  UNL1        0.0061
      8 C          62.5957   84.0871   12.8938 C.3     1  UNL1        0.0224
      9 C          61.9622   84.9764   11.8651 C.3     1  UNL1        0.0061
     10 C          62.5896   86.3342   11.9766 C.3     1  UNL1        0.0219
     11 C          62.5859   87.7230   11.4097 C.3     1  UNL1        0.0950
     12 H          65.4541   90.1518   13.4505 H       1  UNL1        0.1564
     13 C          65.9650   94.9861   12.0299 C.ar    1  UNL1        0.1389
     14 C          65.3895   94.1541   10.9224 C.ar    1  UNL1        0.0382
     15 C          65.0616   92.7101   11.1619 C.ar    1  UNL1        0.0179
     16 C          65.3091   92.0982   12.5088 C.ar    1  UNL1        0.0528
     17 C          65.8846   92.9301   13.6163 C.ar    1  UNL1        0.0305
     18 C          66.2125   94.3741   13.3768 C.ar    1  UNL1        0.0393
     19 C          66.1322   92.3182   14.9632 C.2     1  UNL1        0.0742
     20 O          67.4520   91.6710   15.2618 O.co2   1  UNL1       -0.5446
     21 O          65.0599   92.3534   16.0115 O.co2   1  UNL1       -0.5446
     22 C          66.8946   96.8559   10.4842 C.3     1  UNL1        0.2525
     23 O          66.2929   96.4301   11.7904 O.3     1  UNL1       -0.4714
     24 C          62.2678   82.6432   13.1332 C.ar    1  UNL1       -0.0186
     25 C          61.3083   82.2624   14.2214 C.ar    1  UNL1       -0.0043
     26 C          60.9803   80.8184   14.4609 C.ar    1  UNL1       -0.0003
     27 C          61.6119   79.7552   13.6120 C.ar    1  UNL1       -0.0001
     28 C          62.5715   80.1359   12.5237 C.ar    1  UNL1        0.0035
     29 C          62.8994   81.5799   12.2843 C.ar    1  UNL1        0.0675
     30 C          63.8589   81.9606   11.1961 C.3     1  UNL1        0.4183
     31 F          64.8185   82.3414   10.1078 F       1  UNL1       -0.1659
     32 F          64.9182   82.2284   12.2238 F       1  UNL1       -0.1659
     33 F          62.7997   81.6929   10.1684 F       1  UNL1       -0.1659
@<TRIPOS>UNITY_ATOM_ATTR
20 1
charge -1
@<TRIPOS>BOND
     1    22    23    1
     2    23    13    1
     3    13    14   ar
     4    14    15   ar
     5    15    16   ar
     6    16     1    1
     7     1     2   am
     8     2     3    2
     9     2     4   am
    10     4     5    1
    11     6     5    1
    12     6     7    1
    13     7     8    1
    14     8    24    1
    15    24    25   ar
    16    25    26   ar
    17    26    27   ar
    18    27    28   ar
    19    28    29   ar
    20    29    30    1
    21    30    31    1
    22    30    32    1
    23    30    33    1
    24     8     9    1
    25    10     9    1
    26    10    11    1
    27    16    17   ar
    28    17    19    1
    29    19    20   ar
    30    19    21   ar
    31    17    18   ar
    32    18    13   ar
    33    11     4    1
    34    10     6    1
    35    29    24   ar
    36     1    12    1
@<TRIPOS>MOLECULE
*****
 33 36 0 0 0
SMALL
GASTEIGER

@<TRIPOS>ATOM
      1 N          63.4644   86.3732   13.5192 N.am    1  UNL1       -0.2681
      2 C          62.9311   87.1808   12.3731 C.2     1  UNL1        0.3077
      3 O          61.8452   86.6214   11.5026 O.2     1  UNL1       -0.2522
      4 N          63.4838   88.5478   12.0975 N.am    1  UNL1       -0.2640
      5 C          64.5650   89.2353   12.8775 C.3     1  UNL1        0.0950
      6 C          64.8017   90.5796   12.2555 C.3     1  UNL1        0.0219
      7 C          65.6162   91.8355   12.3532 C.3     1  UNL1        0.0061
      8 C          65.1848   92.7549   11.2493 C.3     1  UNL1        0.0224
      9 C          64.1035   92.0672   10.4693 C.3     1  UNL1        0.0061
     10 C          63.8668   90.7229   11.0913 C.3     1  UNL1        0.0219
     11 C          63.0523   89.4671   10.9936 C.3     1  UNL1        0.0950
     12 H          64.1771   86.7404   14.0905 H       1  UNL1        0.1564
     13 C          61.8065   82.2723   14.3460 C.ar    1  UNL1        0.1389
     14 C          62.2596   82.6331   12.9623 C.ar    1  UNL1        0.0382
     15 C          62.8122   84.0001   12.6868 C.ar    1  UNL1        0.0179
     16 C          62.9117   85.0062   13.7948 C.ar    1  UNL1        0.0528
     17 C          62.4587   84.6454   15.1785 C.ar    1  UNL1        0.0305
     18 C          61.9061   83.2784   15.4540 C.ar    1  UNL1        0.0393
     19 C          62.5582   85.6515   16.2865 C.2     1  UNL1        0.0742
     20 O          63.8693   86.3197   16.5773 O.co2   1  UNL1       -0.5446
     21 O          61.3467   85.9894   17.1038 O.co2   1  UNL1       -0.5446
     22 C          59.8668   80.5526   14.1728 C.3     1  UNL1        0.2525
     23 O          61.2539   80.9053   14.6215 O.3     1  UNL1       -0.4714
     24 C          65.7374   94.1218   10.9737 C.ar    1  UNL1       -0.0186
     25 C          65.0761   95.3313   11.5650 C.ar    1  UNL1       -0.0043
     26 C          65.6288   96.6984   11.2894 C.ar    1  UNL1       -0.0003
     27 C          66.8427   96.8558   10.4225 C.ar    1  UNL1       -0.0001
     28 C          67.5040   95.6461    9.8312 C.ar    1  UNL1        0.0035
     29 C          66.9514   94.2792   10.1068 C.ar    1  UNL1        0.0675
     30 C          67.6126   93.0696    9.5155 C.3     1  UNL1        0.4183
     31 F          68.2739   91.8601    8.9242 F       1  UNL1       -0.1659
     32 F          67.9345   92.5720   10.8934 F       1  UNL1       -0.1659
     33 F          67.2908   93.5673    8.1375 F       1  UNL1       -0.1659
@<TRIPOS>UNITY_ATOM_ATTR
20 1
charge -1
@<TRIPOS>BOND
     1    22    23    1
     2    23    13    1
     3    13    14   ar
     4    14    15   ar
     5    15    16   ar
     6    16     1    1
     7     1     2   am
     8     2     3    2
     9     2     4   am
    10     4     5    1
    11     6     5    1
    12     6     7    1
    13     7     8    1
    14     8    24    1
    15    24    25   ar
    16    25    26   ar
    17    26    27   ar
    18    27    28   ar
    19    28    29   ar
    20    29    30    1
    21    30    31    1
    22    30    32    1
    23    30    33    1
    24     8     9    1
    25    10     9    1
    26    10    11    1
    27    16    17   ar
    28    17    19    1
    29    19    20   ar
    30    19    21   ar
    31    17    18   ar
    32    18    13   ar
    33    11     4    1
    34    10     6    1
    35    29    24   ar
    36     1    12    1
@<TRIPOS>MOLECULE
*****
 33 36 0 0 0
SMALL
GASTEIGER

@<TRIPOS>ATOM
      1 N          63.2148   86.0804   13.2960 N.am    1  UNL1       -0.2681
      2 C          62.7115   86.8752   12.1277 C.2     1  UNL1        0.3077
      3 O          61.7344   86.2622   11.1688 O.2     1  UNL1       -0.2522
      4 N          63.1853   88.2829   11.9183 N.am    1  UNL1       -0.2640
      5 C          64.1553   89.0254   12.7888 C.3     1  UNL1        0.0950
      6 C          64.3418   90.3966   12.2100 C.3     1  UNL1        0.0219
      7 C          65.0565   91.7030   12.3903 C.3     1  UNL1        0.0061
      8 C          64.6435   92.6154   11.2736 C.3     1  UNL1        0.0224
      9 C          63.6735   91.8728   10.4031 C.3     1  UNL1        0.0061
     10 C          63.4870   90.5016   10.9818 C.3     1  UNL1        0.0219
     11 C          62.7723   89.1952   10.8015 C.3     1  UNL1        0.0950
     12 H          63.8561   86.4827   13.9254 H       1  UNL1        0.1564
     13 C          61.7936   81.8573   13.9244 C.ar    1  UNL1        0.1389
     14 C          62.1970   82.3168   12.5548 C.ar    1  UNL1        0.0382
     15 C          62.6708   83.7245   12.3454 C.ar    1  UNL1        0.0179
     16 C          62.7410   84.6727   13.5056 C.ar    1  UNL1        0.0528
     17 C          62.3376   84.2131   14.8752 C.ar    1  UNL1        0.0305
     18 C          61.8638   82.8054   15.0847 C.ar    1  UNL1        0.0393
     19 C          62.4079   85.1613   16.0354 C.2     1  UNL1        0.0742
     20 O          61.1454   85.6780   16.6593 O.co2   1  UNL1       -0.5446
     21 O          63.7406   85.5927   16.5718 O.co2   1  UNL1       -0.5446
     22 C          59.8508   80.1559   14.2089 C.3     1  UNL1        0.2525
     23 O          61.3198   80.4496   14.1339 O.3     1  UNL1       -0.4714
     24 C          65.1173   94.0230   11.0641 C.ar    1  UNL1       -0.0186
     25 C          64.4702   94.8847   10.0208 C.ar    1  UNL1       -0.0043
     26 C          64.9440   96.2925    9.8112 C.ar    1  UNL1       -0.0003
     27 C          66.0649   96.8385   10.6452 C.ar    1  UNL1       -0.0001
     28 C          66.7121   95.9767   11.6886 C.ar    1  UNL1        0.0035
     29 C          66.2383   94.5690   11.8981 C.ar    1  UNL1        0.0675
     30 C          66.8854   93.7073   12.9414 C.3     1  UNL1        0.4183
     31 F          67.5325   92.8455   13.9848 F       1  UNL1       -0.1659
     32 F          67.5463   92.8993   11.8642 F       1  UNL1       -0.1659
     33 F          66.2245   94.5152   14.0186 F       1  UNL1       -0.1659
@<TRIPOS>UNITY_ATOM_ATTR
20 1
charge -1
@<TRIPOS>BOND
     1    22    23    1
     2    23    13    1
     3    13    14   ar
     4    14    15   ar
     5    15    16   ar
     6    16     1    1
     7     1     2   am
     8     2     3    2
     9     2     4   am
    10     4     5    1
    11     6     5    1
    12     6     7    1
    13     7     8    1
    14     8    24    1
    15    24    25   ar
    16    25    26   ar
    17    26    27   ar
    18    27    28   ar
    19    28    29   ar
    20    29    30    1
    21    30    31    1
    22    30    32    1
    23    30    33    1
    24     8     9    1
    25    10     9    1
    26    10    11    1
    27    16    17   ar
    28    17    19    1
    29    19    20   ar
    30    19    21   ar
    31    17    18   ar
    32    18    13   ar
    33    11     4    1
    34    10     6    1
    35    29    24   ar
    36     1    12    1
