@<TRIPOS>MOLECULE
*****
 35 39 0 0 0
SMALL
GASTEIGER

@<TRIPOS>ATOM
      1 C          62.9616   86.2911   12.3646 C.2     1  UNL1        0.2667
      2 O          63.5558   87.1874   13.4104 O.2     1  UNL1       -0.2683
      3 N          62.1299   86.8748   11.2611 N.am    1  UNL1       -0.2748
      4 C          61.4745   86.1079   10.1510 C.3     1  UNL1        0.0937
      5 C          60.7472   87.0870    9.2778 C.3     1  UNL1        0.0200
      6 C          60.2208   86.0711    8.3079 C.3     1  UNL1        0.0018
      7 C          59.8985   87.5240    8.1208 C.3     1  UNL1        0.0018
      8 C          60.9531   88.4589    9.8483 C.3     1  UNL1        0.0232
      9 C          61.8077   88.3278   11.0740 C.3     1  UNL1        0.0952
     10 C          63.8893   81.7848    9.9494 C.3     1  UNL1        0.0521
     11 C          63.6630   82.5581   11.2146 C.ar    1  UNL1        0.0595
     12 C          63.6743   81.8513   12.5377 C.ar    1  UNL1        0.0148
     13 C          63.4480   82.6244   13.8030 C.ar    1  UNL1        0.0029
     14 C          63.2104   84.1044   13.7453 C.ar    1  UNL1        0.0222
     15 C          63.1992   84.8112   12.4223 C.ar    1  UNL1        0.1342
     16 N          63.4255   84.0380   11.1569 N.ar    1  UNL1       -0.2451
     17 C          62.9841   84.8775   15.0106 C.ar    1  UNL1        0.0016
     18 C          61.5901   85.0818   15.5256 C.ar    1  UNL1        0.0000
     19 C          61.3638   85.8549   16.7908 C.ar    1  UNL1        0.0000
     20 C          62.5314   86.4237   17.5413 C.ar    1  UNL1        0.0000
     21 C          63.9253   86.2194   17.0263 C.ar    1  UNL1        0.0000
     22 C          64.1516   85.4463   15.7610 C.ar    1  UNL1        0.0000
     23 C          62.2605   89.4522   11.9576 C.3     1  UNL1        0.1082
     24 N          63.2095   90.4863   11.4285 N.pl3   1  UNL1       -0.3167
     25 H          63.1650   90.7575   10.4831 H       1  UNL1        0.1482
     26 C          64.2263   91.1074   12.3397 C.ar    1  UNL1        0.1285
     27 C          64.4342   90.5549   13.7187 C.ar    1  UNL1        0.0340
     28 C          65.4510   91.1760   14.6300 C.ar    1  UNL1        0.0083
     29 C          66.2599   92.3494   14.1622 C.ar    1  UNL1        0.0906
     30 C          66.0519   92.9018   12.7832 C.ar    1  UNL1        0.1041
     31 N          65.0351   92.2808   11.8720 N.ar    1  UNL1       -0.2294
     32 C          67.2767   92.9704   15.0735 C.3     1  UNL1        0.4200
     33 F          68.2935   93.5915   15.9848 F       1  UNL1       -0.1658
     34 F          67.6624   91.6089   15.5709 F       1  UNL1       -0.1658
     35 F          66.8910   94.3320   14.5761 F       1  UNL1       -0.1658
@<TRIPOS>BOND
     1    10    11    1
     2    11    12   ar
     3    12    13   ar
     4    13    14   ar
     5    14    17    1
     6    17    18   ar
     7    18    19   ar
     8    19    20   ar
     9    20    21   ar
    10    21    22   ar
    11    14    15   ar
    12    15     1    1
    13     1     2    2
    14     1     3   am
    15     3     4    1
    16     4     5    1
    17     5     6    1
    18     6     7    1
    19     5     8    1
    20     8     9    1
    21     9    23    1
    22    23    24    1
    23    24    26    1
    24    26    27   ar
    25    27    28   ar
    26    28    29   ar
    27    29    32    1
    28    32    33    1
    29    32    34    1
    30    32    35    1
    31    29    30   ar
    32    30    31   ar
    33    15    16   ar
    34    16    11   ar
    35    22    17   ar
    36     9     3    1
    37    31    26   ar
    38     7     5    1
    39    24    25    1
@<TRIPOS>MOLECULE
*****
 35 39 0 0 0
SMALL
GASTEIGER

@<TRIPOS>ATOM
      1 C          62.9938   86.4713   12.4544 C.2     1  UNL1        0.2667
      2 O          63.5702   87.3520   13.5231 O.2     1  UNL1       -0.2683
      3 N          62.1312   87.0631   11.3793 N.am    1  UNL1       -0.2748
      4 C          61.4886   86.3119   10.2511 C.3     1  UNL1        0.0937
      5 C          60.7201   87.2945    9.4182 C.3     1  UNL1        0.0200
      6 C          60.2161   86.2942    8.4206 C.3     1  UNL1        0.0018
      7 C          59.8447   87.7411    8.2850 C.3     1  UNL1        0.0018
      8 C          60.8876   88.6531   10.0316 C.3     1  UNL1        0.0232
      9 C          61.7598   88.5101   11.2436 C.3     1  UNL1        0.0952
     10 C          64.0828   82.0877    9.8857 C.3     1  UNL1        0.0521
     11 C          63.8244   82.8071   11.1763 C.ar    1  UNL1        0.0595
     12 C          63.8522   82.0540   12.4733 C.ar    1  UNL1        0.0148
     13 C          63.5938   82.7734   13.7640 C.ar    1  UNL1        0.0029
     14 C          63.3077   84.2458   13.7576 C.ar    1  UNL1        0.0222
     15 C          63.2799   84.9989   12.4607 C.ar    1  UNL1        0.1342
     16 N          63.5382   84.2795   11.1700 N.ar    1  UNL1       -0.2451
     17 C          63.0494   84.9651   15.0483 C.ar    1  UNL1        0.0016
     18 C          64.1960   85.5219   15.8392 C.ar    1  UNL1        0.0000
     19 C          63.9377   86.2413   17.1298 C.ar    1  UNL1        0.0000
     20 C          62.5328   86.4038   17.6296 C.ar    1  UNL1        0.0000
     21 C          61.3862   85.8471   16.8388 C.ar    1  UNL1        0.0000
     22 C          61.6446   85.1278   15.5482 C.ar    1  UNL1        0.0000
     23 C          62.1857   89.6193   12.1592 C.3     1  UNL1        0.1082
     24 N          63.6378   89.8070   12.4850 N.pl3   1  UNL1       -0.3167
     25 H          64.1393   89.0869   12.9314 H       1  UNL1        0.1482
     26 C          64.3259   91.0919   12.1306 C.ar    1  UNL1        0.1285
     27 C          64.2320   91.6327   10.7346 C.ar    1  UNL1        0.0340
     28 C          64.9202   92.9176   10.3803 C.ar    1  UNL1        0.0083
     29 C          65.7022   93.6616   11.4218 C.ar    1  UNL1        0.0906
     30 C          65.7961   93.1207   12.8178 C.ar    1  UNL1        0.1041
     31 N          65.1080   91.8359   13.1722 N.ar    1  UNL1       -0.2294
     32 C          66.3903   94.9464   11.0675 C.3     1  UNL1        0.4200
     33 F          67.0785   96.2314   10.7130 F       1  UNL1       -0.1658
     34 F          66.2691   95.4039   12.4908 F       1  UNL1       -0.1658
     35 F          66.5115   94.4890    9.6440 F       1  UNL1       -0.1658
@<TRIPOS>BOND
     1    10    11    1
     2    11    12   ar
     3    12    13   ar
     4    13    14   ar
     5    14    17    1
     6    17    18   ar
     7    18    19   ar
     8    19    20   ar
     9    20    21   ar
    10    21    22   ar
    11    14    15   ar
    12    15     1    1
    13     1     2    2
    14     1     3   am
    15     3     4    1
    16     4     5    1
    17     5     6    1
    18     6     7    1
    19     5     8    1
    20     8     9    1
    21     9    23    1
    22    23    24    1
    23    24    26    1
    24    26    27   ar
    25    27    28   ar
    26    28    29   ar
    27    29    32    1
    28    32    33    1
    29    32    34    1
    30    32    35    1
    31    29    30   ar
    32    30    31   ar
    33    15    16   ar
    34    16    11   ar
    35    22    17   ar
    36     9     3    1
    37    31    26   ar
    38     7     5    1
    39    24    25    1
@<TRIPOS>MOLECULE
*****
 35 39 0 0 0
SMALL
GASTEIGER

@<TRIPOS>ATOM
      1 C          63.4597   87.8577   13.3758 C.2     1  UNL1        0.2667
      2 O          63.7832   89.0854   12.5769 O.2     1  UNL1       -0.2683
      3 N          63.3177   87.9486   14.8663 N.am    1  UNL1       -0.2748
      4 C          62.9983   86.8128   15.7924 C.3     1  UNL1        0.0937
      5 C          62.9533   87.3535   17.1908 C.3     1  UNL1        0.0200
      6 C          62.6293   86.0476   17.8536 C.3     1  UNL1        0.0018
      7 C          62.7816   87.2903   18.6796 C.3     1  UNL1        0.0018
      8 C          63.2449   88.8236   17.1289 C.3     1  UNL1        0.0232
      9 C          63.4700   89.1915   15.6923 C.3     1  UNL1        0.0952
     10 C          64.5612   82.7952   12.9790 C.3     1  UNL1        0.0521
     11 C          63.8290   84.0079   12.4858 C.ar    1  UNL1        0.0595
     12 C          62.9153   83.9019   11.3009 C.ar    1  UNL1        0.0148
     13 C          62.1831   85.1146   10.8076 C.ar    1  UNL1        0.0029
     14 C          62.3646   86.4332   11.4992 C.ar    1  UNL1        0.0222
     15 C          63.2782   86.5391   12.6841 C.ar    1  UNL1        0.1342
     16 N          64.0105   85.3265   13.1774 N.ar    1  UNL1       -0.2451
     17 C          61.6323   87.6458   11.0059 C.ar    1  UNL1        0.0016
     18 C          62.1803   88.4362    9.8547 C.ar    1  UNL1        0.0000
     19 C          61.4482   89.6488    9.3614 C.ar    1  UNL1        0.0000
     20 C          60.1680   90.0711   10.0192 C.ar    1  UNL1        0.0000
     21 C          59.6200   89.2808   11.1704 C.ar    1  UNL1        0.0000
     22 C          60.3522   88.0682   11.6637 C.ar    1  UNL1        0.0000
     23 C          63.7912   90.5615   15.1728 C.3     1  UNL1        0.1082
     24 N          65.2190   91.0104   15.0737 N.pl3   1  UNL1       -0.3167
     25 H          65.8126   90.9397   15.8559 H       1  UNL1        0.1482
     26 C          65.7424   91.5671   13.7829 C.ar    1  UNL1        0.1285
     27 C          67.2204   91.6178   13.5325 C.ar    1  UNL1        0.0340
     28 C          67.7438   92.1744   12.2417 C.ar    1  UNL1        0.0083
     29 C          66.7890   92.6804   11.2013 C.ar    1  UNL1        0.0906
     30 C          65.3109   92.6297   11.4517 C.ar    1  UNL1        0.1041
     31 N          64.7876   92.0731   12.7425 N.ar    1  UNL1       -0.2294
     32 C          67.3124   93.2371    9.9105 C.3     1  UNL1        0.4200
     33 F          67.8357   93.7938    8.6196 F       1  UNL1       -0.1658
     34 F          68.0578   91.9594    9.6618 F       1  UNL1       -0.1658
     35 F          66.5670   94.5148   10.1592 F       1  UNL1       -0.1658
@<TRIPOS>BOND
     1    10    11    1
     2    11    12   ar
     3    12    13   ar
     4    13    14   ar
     5    14    17    1
     6    17    18   ar
     7    18    19   ar
     8    19    20   ar
     9    20    21   ar
    10    21    22   ar
    11    14    15   ar
    12    15     1    1
    13     1     2    2
    14     1     3   am
    15     3     4    1
    16     4     5    1
    17     5     6    1
    18     6     7    1
    19     5     8    1
    20     8     9    1
    21     9    23    1
    22    23    24    1
    23    24    26    1
    24    26    27   ar
    25    27    28   ar
    26    28    29   ar
    27    29    32    1
    28    32    33    1
    29    32    34    1
    30    32    35    1
    31    29    30   ar
    32    30    31   ar
    33    15    16   ar
    34    16    11   ar
    35    22    17   ar
    36     9     3    1
    37    31    26   ar
    38     7     5    1
    39    24    25    1
@<TRIPOS>MOLECULE
*****
 35 39 0 0 0
SMALL
GASTEIGER

@<TRIPOS>ATOM
      1 C          62.6770   86.8552   10.9538 C.2     1  UNL1        0.2667
      2 O          63.1968   88.2351   11.2296 O.2     1  UNL1       -0.2683
      3 N          62.8746   85.7637   11.9635 N.am    1  UNL1       -0.2748
      4 C          62.4129   84.3430   11.8277 C.3     1  UNL1        0.0937
      5 C          62.8215   83.6024   13.0665 C.3     1  UNL1        0.0200
      6 C          62.2494   82.2787   12.6538 C.3     1  UNL1        0.0018
      7 C          62.9433   82.4162   13.9765 C.3     1  UNL1        0.0018
      8 C          63.5357   84.5655   13.9679 C.3     1  UNL1        0.0232
      9 C          63.5685   85.9012   13.2862 C.3     1  UNL1        0.0952
     10 C          62.3083   84.1966    6.5045 C.3     1  UNL1        0.0521
     11 C          61.7754   85.2377    7.4438 C.ar    1  UNL1        0.0595
     12 C          60.5250   85.9905    7.0975 C.ar    1  UNL1        0.0148
     13 C          59.9920   87.0316    8.0366 C.ar    1  UNL1        0.0029
     14 C          60.7093   87.3199    9.3220 C.ar    1  UNL1        0.0222
     15 C          61.9597   86.5670    9.6683 C.ar    1  UNL1        0.1342
     16 N          62.4927   85.5259    8.7292 N.ar    1  UNL1       -0.2451
     17 C          60.1763   88.3610   10.2612 C.ar    1  UNL1        0.0016
     18 C          60.3304   89.8166    9.9330 C.ar    1  UNL1        0.0000
     19 C          59.7975   90.8577   10.8721 C.ar    1  UNL1        0.0000
     20 C          59.1103   90.4433   12.1394 C.ar    1  UNL1        0.0000
     21 C          58.9562   88.9878   12.4676 C.ar    1  UNL1        0.0000
     22 C          59.4892   87.9467   11.5285 C.ar    1  UNL1        0.0000
     23 C          64.1868   87.1544   13.8314 C.3     1  UNL1        0.1082
     24 N          63.3842   88.4201   13.8956 N.pl3   1  UNL1       -0.3167
     25 H          62.4363   88.3890   14.1596 H       1  UNL1        0.1482
     26 C          64.0260   89.7330   13.5576 C.ar    1  UNL1        0.1285
     27 C          63.5330   90.5291   12.3858 C.ar    1  UNL1        0.0340
     28 C          64.1748   91.8421   12.0477 C.ar    1  UNL1        0.0083
     29 C          65.3096   92.3589   12.8815 C.ar    1  UNL1        0.0906
     30 C          65.8025   91.5627   14.0533 C.ar    1  UNL1        0.1041
     31 N          65.1608   90.2498   14.3914 N.ar    1  UNL1       -0.2294
     32 C          65.9513   93.6718   12.5435 C.3     1  UNL1        0.4200
     33 F          66.5931   94.9848   12.2054 F       1  UNL1       -0.1658
     34 F          66.4826   93.7723   13.9426 F       1  UNL1       -0.1658
     35 F          65.4200   93.5714   11.1443 F       1  UNL1       -0.1658
@<TRIPOS>BOND
     1    10    11    1
     2    11    12   ar
     3    12    13   ar
     4    13    14   ar
     5    14    17    1
     6    17    18   ar
     7    18    19   ar
     8    19    20   ar
     9    20    21   ar
    10    21    22   ar
    11    14    15   ar
    12    15     1    1
    13     1     2    2
    14     1     3   am
    15     3     4    1
    16     4     5    1
    17     5     6    1
    18     6     7    1
    19     5     8    1
    20     8     9    1
    21     9    23    1
    22    23    24    1
    23    24    26    1
    24    26    27   ar
    25    27    28   ar
    26    28    29   ar
    27    29    32    1
    28    32    33    1
    29    32    34    1
    30    32    35    1
    31    29    30   ar
    32    30    31   ar
    33    15    16   ar
    34    16    11   ar
    35    22    17   ar
    36     9     3    1
    37    31    26   ar
    38     7     5    1
    39    24    25    1
@<TRIPOS>MOLECULE
*****
 35 39 0 0 0
SMALL
GASTEIGER

@<TRIPOS>ATOM
      1 C          62.3939   86.9788   11.5172 C.2     1  UNL1        0.2667
      2 O          62.2955   85.8972   12.5520 O.2     1  UNL1       -0.2683
      3 N          63.0075   88.3012   11.8704 N.am    1  UNL1       -0.2748
      4 C          63.1735   89.4711   10.9465 C.3     1  UNL1        0.0937
      5 C          63.8314   90.5787   11.7147 C.3     1  UNL1        0.0200
      6 C          63.8611   91.5600   10.5805 C.3     1  UNL1        0.0018
      7 C          64.4165   91.9446   11.9198 C.3     1  UNL1        0.0018
      8 C          64.0721   90.0934   13.1134 C.3     1  UNL1        0.0232
      9 C          63.5629   88.6858   13.2097 C.3     1  UNL1        0.0952
     10 C          62.6764   84.4466    6.9885 C.3     1  UNL1        0.0521
     11 C          62.0200   85.4718    7.8649 C.ar    1  UNL1        0.0595
     12 C          60.8482   86.2561    7.3533 C.ar    1  UNL1        0.0148
     13 C          60.1916   87.2813    8.2296 C.ar    1  UNL1        0.0029
     14 C          60.7069   87.5222    9.6175 C.ar    1  UNL1        0.0222
     15 C          61.8786   86.7379   10.1292 C.ar    1  UNL1        0.1342
     16 N          62.5352   85.7127    9.2529 N.ar    1  UNL1       -0.2451
     17 C          60.0503   88.5474   10.4938 C.ar    1  UNL1        0.0016
     18 C          60.1222   90.0011   10.1308 C.ar    1  UNL1        0.0000
     19 C          59.4657   91.0263   11.0070 C.ar    1  UNL1        0.0000
     20 C          58.7372   90.5979   12.2463 C.ar    1  UNL1        0.0000
     21 C          58.6653   89.1443   12.6093 C.ar    1  UNL1        0.0000
     22 C          59.3219   88.1191   11.7330 C.ar    1  UNL1        0.0000
     23 C          63.6022   87.8156   14.4309 C.3     1  UNL1        0.1082
     24 N          64.5727   86.6744   14.5077 N.pl3   1  UNL1       -0.3167
     25 H          65.5305   86.8515   14.6504 H       1  UNL1        0.1482
     26 C          64.0837   85.2633   14.3671 C.ar    1  UNL1        0.1285
     27 C          64.7687   84.3231   13.4200 C.ar    1  UNL1        0.0340
     28 C          64.2797   82.9120   13.2794 C.ar    1  UNL1        0.0083
     29 C          63.1059   82.4412   14.0859 C.ar    1  UNL1        0.0906
     30 C          62.4209   83.3814   15.0329 C.ar    1  UNL1        0.1041
     31 N          62.9098   84.7925   15.1735 N.ar    1  UNL1       -0.2294
     32 C          62.6169   81.0301   13.9453 C.3     1  UNL1        0.4200
     33 F          62.1280   79.6189   13.8046 F       1  UNL1       -0.1658
     34 F          61.3290   81.4097   14.6140 F       1  UNL1       -0.1658
     35 F          63.9048   80.6504   13.2765 F       1  UNL1       -0.1658
@<TRIPOS>BOND
     1    10    11    1
     2    11    12   ar
     3    12    13   ar
     4    13    14   ar
     5    14    17    1
     6    17    18   ar
     7    18    19   ar
     8    19    20   ar
     9    20    21   ar
    10    21    22   ar
    11    14    15   ar
    12    15     1    1
    13     1     2    2
    14     1     3   am
    15     3     4    1
    16     4     5    1
    17     5     6    1
    18     6     7    1
    19     5     8    1
    20     8     9    1
    21     9    23    1
    22    23    24    1
    23    24    26    1
    24    26    27   ar
    25    27    28   ar
    26    28    29   ar
    27    29    32    1
    28    32    33    1
    29    32    34    1
    30    32    35    1
    31    29    30   ar
    32    30    31   ar
    33    15    16   ar
    34    16    11   ar
    35    22    17   ar
    36     9     3    1
    37    31    26   ar
    38     7     5    1
    39    24    25    1
@<TRIPOS>MOLECULE
*****
 35 39 0 0 0
SMALL
GASTEIGER

@<TRIPOS>ATOM
      1 C          63.1679   88.0077   11.9923 C.2     1  UNL1        0.2667
      2 O          63.1697   88.4756   10.5671 O.2     1  UNL1       -0.2683
      3 N          63.3038   89.0012   13.1080 N.am    1  UNL1       -0.2748
      4 C          63.3185   88.6840   14.5740 C.3     1  UNL1        0.0937
      5 C          63.4726   89.9730   15.3255 C.3     1  UNL1        0.0200
      6 C          63.4544   89.3596   16.6942 C.3     1  UNL1        0.0018
      7 C          63.5994   90.8445   16.5398 C.3     1  UNL1        0.0018
      8 C          63.5532   91.0867   14.3240 C.3     1  UNL1        0.0232
      9 C          63.4488   90.4862   12.9534 C.3     1  UNL1        0.0952
     10 C          64.3989   83.8914   14.9147 C.3     1  UNL1        0.0521
     11 C          63.6458   84.4884   13.7630 C.ar    1  UNL1        0.0595
     12 C          62.7549   83.6240   12.9208 C.ar    1  UNL1        0.0148
     13 C          62.0017   84.2209   11.7691 C.ar    1  UNL1        0.0029
     14 C          62.1394   85.6821   11.4596 C.ar    1  UNL1        0.0222
     15 C          63.0302   86.5465   12.3018 C.ar    1  UNL1        0.1342
     16 N          63.7834   85.9496   13.4535 N.ar    1  UNL1       -0.2451
     17 C          61.3862   86.2790   10.3079 C.ar    1  UNL1        0.0016
     18 C          60.3592   87.3442   10.5547 C.ar    1  UNL1        0.0000
     19 C          59.6060   87.9411    9.4031 C.ar    1  UNL1        0.0000
     20 C          59.8797   87.4728    8.0046 C.ar    1  UNL1        0.0000
     21 C          60.9066   86.4077    7.7577 C.ar    1  UNL1        0.0000
     22 C          61.6598   85.8109    8.9095 C.ar    1  UNL1        0.0000
     23 C          63.4834   91.2384   11.6562 C.3     1  UNL1        0.1082
     24 N          64.6757   92.0796   11.3085 N.pl3   1  UNL1       -0.3167
     25 H          64.7742   92.4416   10.3983 H       1  UNL1        0.1482
     26 C          65.7180   92.3691   12.3477 C.ar    1  UNL1        0.1285
     27 C          66.9782   91.5567   12.3926 C.ar    1  UNL1        0.0340
     28 C          68.0205   91.8462   13.4317 C.ar    1  UNL1        0.0083
     29 C          67.8026   92.9481   14.4259 C.ar    1  UNL1        0.0906
     30 C          66.5424   93.7604   14.3810 C.ar    1  UNL1        0.1041
     31 N          65.5001   93.4709   13.3419 N.ar    1  UNL1       -0.2294
     32 C          68.8449   93.2376   15.4650 C.3     1  UNL1        0.4200
     33 F          69.8873   93.5270   16.5041 F       1  UNL1       -0.1658
     34 F          67.7957   93.8451   16.3481 F       1  UNL1       -0.1658
     35 F          69.8942   92.6300   14.5819 F       1  UNL1       -0.1658
@<TRIPOS>BOND
     1    10    11    1
     2    11    12   ar
     3    12    13   ar
     4    13    14   ar
     5    14    17    1
     6    17    18   ar
     7    18    19   ar
     8    19    20   ar
     9    20    21   ar
    10    21    22   ar
    11    14    15   ar
    12    15     1    1
    13     1     2    2
    14     1     3   am
    15     3     4    1
    16     4     5    1
    17     5     6    1
    18     6     7    1
    19     5     8    1
    20     8     9    1
    21     9    23    1
    22    23    24    1
    23    24    26    1
    24    26    27   ar
    25    27    28   ar
    26    28    29   ar
    27    29    32    1
    28    32    33    1
    29    32    34    1
    30    32    35    1
    31    29    30   ar
    32    30    31   ar
    33    15    16   ar
    34    16    11   ar
    35    22    17   ar
    36     9     3    1
    37    31    26   ar
    38     7     5    1
    39    24    25    1
@<TRIPOS>MOLECULE
*****
 35 39 0 0 0
SMALL
GASTEIGER

@<TRIPOS>ATOM
      1 C          61.8517   87.6203   11.2946 C.2     1  UNL1        0.2667
      2 O          61.6053   86.5342   12.2996 O.2     1  UNL1       -0.2683
      3 N          62.7087   88.7969   11.6569 N.am    1  UNL1       -0.2748
      4 C          63.0424   89.9535   10.7619 C.3     1  UNL1        0.0937
      5 C          63.9224   90.8948   11.5296 C.3     1  UNL1        0.0200
      6 C          64.0789   91.8985   10.4259 C.3     1  UNL1        0.0018
      7 C          64.7527   92.1251   11.7467 C.3     1  UNL1        0.0018
      8 C          64.1326   90.3201   12.8991 C.3     1  UNL1        0.0232
      9 C          63.3826   89.0235   12.9778 C.3     1  UNL1        0.0952
     10 C          59.0097   89.7241    7.4872 C.3     1  UNL1        0.0521
     11 C          59.8202   88.5817    8.0239 C.ar    1  UNL1        0.0595
     12 C          60.0200   87.3487    7.1934 C.ar    1  UNL1        0.0148
     13 C          60.8304   86.2062    7.7299 C.ar    1  UNL1        0.0029
     14 C          61.4410   86.2967    9.0970 C.ar    1  UNL1        0.0222
     15 C          61.2412   87.5298    9.9275 C.ar    1  UNL1        0.1342
     16 N          60.4307   88.6722    9.3910 N.ar    1  UNL1       -0.2451
     17 C          62.2515   85.1543    9.6336 C.ar    1  UNL1        0.0016
     18 C          63.4999   84.7216    8.9234 C.ar    1  UNL1        0.0000
     19 C          64.3103   83.5791    9.4598 C.ar    1  UNL1        0.0000
     20 C          63.8724   82.8693   10.7066 C.ar    1  UNL1        0.0000
     21 C          62.6241   83.3019   11.4168 C.ar    1  UNL1        0.0000
     22 C          61.8136   84.4444   10.8802 C.ar    1  UNL1        0.0000
     23 C          63.3177   88.1132   14.1683 C.3     1  UNL1        0.1082
     24 N          64.3839   87.0798   14.3812 N.pl3   1  UNL1       -0.3167
     25 H          65.3166   87.3581   14.5291 H       1  UNL1        0.1482
     26 C          64.0290   85.6225   14.3689 C.ar    1  UNL1        0.1285
     27 C          65.0311   84.6104   13.8983 C.ar    1  UNL1        0.0340
     28 C          64.6762   83.1531   13.8860 C.ar    1  UNL1        0.0083
     29 C          63.3192   82.7078   14.3443 C.ar    1  UNL1        0.0906
     30 C          62.3170   83.7199   14.8150 C.ar    1  UNL1        0.1041
     31 N          62.6719   85.1772   14.8273 N.ar    1  UNL1       -0.2294
     32 C          62.9643   81.2505   14.3321 C.3     1  UNL1        0.4200
     33 F          62.6093   79.7931   14.3198 F       1  UNL1       -0.1658
     34 F          64.3904   80.9058   14.0203 F       1  UNL1       -0.1658
     35 F          61.5380   81.5951   14.6439 F       1  UNL1       -0.1658
@<TRIPOS>BOND
     1    10    11    1
     2    11    12   ar
     3    12    13   ar
     4    13    14   ar
     5    14    17    1
     6    17    18   ar
     7    18    19   ar
     8    19    20   ar
     9    20    21   ar
    10    21    22   ar
    11    14    15   ar
    12    15     1    1
    13     1     2    2
    14     1     3   am
    15     3     4    1
    16     4     5    1
    17     5     6    1
    18     6     7    1
    19     5     8    1
    20     8     9    1
    21     9    23    1
    22    23    24    1
    23    24    26    1
    24    26    27   ar
    25    27    28   ar
    26    28    29   ar
    27    29    32    1
    28    32    33    1
    29    32    34    1
    30    32    35    1
    31    29    30   ar
    32    30    31   ar
    33    15    16   ar
    34    16    11   ar
    35    22    17   ar
    36     9     3    1
    37    31    26   ar
    38     7     5    1
    39    24    25    1
@<TRIPOS>MOLECULE
*****
 35 39 0 0 0
SMALL
GASTEIGER

@<TRIPOS>ATOM
      1 C          60.0368   94.5768    0.9892 C.2     1  UNL1        0.2667
      2 O          60.7403   95.9017    0.9901 O.2     1  UNL1       -0.2683
      3 N          59.0424   94.2563   -0.0871 N.am    1  UNL1       -0.2748
      4 C          58.2653   92.9801   -0.2179 C.3     1  UNL1        0.0937
      5 C          57.3932   93.0909   -1.4333 C.3     1  UNL1        0.0200
      6 C          56.7712   91.7320   -1.3043 C.3     1  UNL1        0.0018
      7 C          56.3793   92.6316   -2.4389 C.3     1  UNL1        0.0018
      8 C          57.6313   94.4357   -2.0536 C.3     1  UNL1        0.0232
      9 C          58.6506   95.1560   -1.2217 C.3     1  UNL1        0.0952
     10 C          58.4031   91.5687    4.8985 C.3     1  UNL1        0.0521
     11 C          59.5109   92.0684    4.0192 C.ar    1  UNL1        0.0595
     12 C          60.9098   91.5636    4.2154 C.ar    1  UNL1        0.0148
     13 C          62.0176   92.0633    3.3362 C.ar    1  UNL1        0.0029
     14 C          61.7267   93.0676    2.2608 C.ar    1  UNL1        0.0222
     15 C          60.3278   93.5724    2.0646 C.ar    1  UNL1        0.1342
     16 N          59.2199   93.0728    2.9438 N.ar    1  UNL1       -0.2451
     17 C          62.8345   93.5673    1.3816 C.ar    1  UNL1        0.0016
     18 C          63.8858   94.4776    1.9441 C.ar    1  UNL1        0.0000
     19 C          64.9937   94.9772    1.0650 C.ar    1  UNL1        0.0000
     20 C          65.0504   94.5666   -0.3766 C.ar    1  UNL1        0.0000
     21 C          63.9991   93.6563   -0.9391 C.ar    1  UNL1        0.0000
     22 C          62.8913   93.1567   -0.0599 C.ar    1  UNL1        0.0000
     23 C          59.1844   96.5340   -1.4791 C.3     1  UNL1        0.1082
     24 N          59.8286   96.8550   -2.7951 N.pl3   1  UNL1       -0.3167
     25 H          59.4781   97.5900   -3.3485 H       1  UNL1        0.1482
     26 C          61.0069   96.0563   -3.2680 C.ar    1  UNL1        0.1285
     27 C          60.8177   94.6414   -3.7288 C.ar    1  UNL1        0.0340
     28 C          61.9960   93.8427   -4.2017 C.ar    1  UNL1        0.0083
     29 C          63.3635   94.4589   -4.2137 C.ar    1  UNL1        0.0906
     30 C          63.5528   95.8738   -3.7529 C.ar    1  UNL1        0.1041
     31 N          62.3745   96.6725   -3.2800 N.ar    1  UNL1       -0.2294
     32 C          64.5418   93.6602   -4.6866 C.3     1  UNL1        0.4200
     33 F          65.7202   92.8615   -5.1595 F       1  UNL1       -0.1658
     34 F          63.7982   92.3905   -4.3950 F       1  UNL1       -0.1658
     35 F          65.2855   94.9298   -4.9783 F       1  UNL1       -0.1658
@<TRIPOS>BOND
     1    10    11    1
     2    11    12   ar
     3    12    13   ar
     4    13    14   ar
     5    14    17    1
     6    17    18   ar
     7    18    19   ar
     8    19    20   ar
     9    20    21   ar
    10    21    22   ar
    11    14    15   ar
    12    15     1    1
    13     1     2    2
    14     1     3   am
    15     3     4    1
    16     4     5    1
    17     5     6    1
    18     6     7    1
    19     5     8    1
    20     8     9    1
    21     9    23    1
    22    23    24    1
    23    24    26    1
    24    26    27   ar
    25    27    28   ar
    26    28    29   ar
    27    29    32    1
    28    32    33    1
    29    32    34    1
    30    32    35    1
    31    29    30   ar
    32    30    31   ar
    33    15    16   ar
    34    16    11   ar
    35    22    17   ar
    36     9     3    1
    37    31    26   ar
    38     7     5    1
    39    24    25    1
@<TRIPOS>MOLECULE
*****
 35 39 0 0 0
SMALL
GASTEIGER

@<TRIPOS>ATOM
      1 C          62.9508   86.9063   11.8600 C.2     1  UNL1        0.2667
      2 O          63.7108   87.0003   13.1499 O.2     1  UNL1       -0.2683
      3 N          62.1078   88.0588   11.4004 N.am    1  UNL1       -0.2748
      4 C          61.2962   88.1101   10.1401 C.3     1  UNL1        0.0937
      5 C          60.6153   89.4453   10.0813 C.3     1  UNL1        0.0200
      6 C          59.9154   89.2071    8.7762 C.3     1  UNL1        0.0018
      7 C          59.7361   90.5106    9.4963 C.3     1  UNL1        0.0018
      8 C          61.0061   90.2193   11.3053 C.3     1  UNL1        0.0232
      9 C          61.9286   89.3624   12.1206 C.3     1  UNL1        0.0952
     10 C          62.8622   84.5792    7.2149 C.3     1  UNL1        0.0521
     11 C          62.9895   84.4964    8.7072 C.ar    1  UNL1        0.0595
     12 C          63.1998   83.1669    9.3692 C.ar    1  UNL1        0.0148
     13 C          63.3272   83.0838   10.8615 C.ar    1  UNL1        0.0029
     14 C          63.2442   84.3303   11.6917 C.ar    1  UNL1        0.0222
     15 C          63.0338   85.6598   11.0297 C.ar    1  UNL1        0.1342
     16 N          62.9065   85.7428    9.5374 N.ar    1  UNL1       -0.2451
     17 C          63.3715   84.2473   13.1840 C.ar    1  UNL1        0.0016
     18 C          64.7293   84.2367   13.8215 C.ar    1  UNL1        0.0000
     19 C          64.8567   84.1537   15.3137 C.ar    1  UNL1        0.0000
     20 C          63.6263   84.0813   16.1686 C.ar    1  UNL1        0.0000
     21 C          62.2685   84.0919   15.5312 C.ar    1  UNL1        0.0000
     22 C          62.1412   84.1749   14.0389 C.ar    1  UNL1        0.0000
     23 C          62.5608   89.7423   13.4267 C.3     1  UNL1        0.1082
     24 N          63.1171   91.1222   13.6174 N.pl3   1  UNL1       -0.3167
     25 H          62.7410   91.7134   14.3090 H       1  UNL1        0.1482
     26 C          64.2464   91.6015   12.7543 C.ar    1  UNL1        0.1285
     27 C          64.0394   91.7807   11.2795 C.ar    1  UNL1        0.0340
     28 C          65.1688   92.2599   10.4164 C.ar    1  UNL1        0.0083
     29 C          66.5051   92.5599   11.0282 C.ar    1  UNL1        0.0906
     30 C          66.7121   92.3807   12.5030 C.ar    1  UNL1        0.1041
     31 N          65.5827   91.9015   13.3661 N.ar    1  UNL1       -0.2294
     32 C          67.6344   93.0392   10.1651 C.3     1  UNL1        0.4200
     33 F          68.7638   93.5184    9.3020 F       1  UNL1       -0.1658
     34 F          67.2682   94.4604   10.4751 F       1  UNL1       -0.1658
     35 F          68.0006   91.6180    9.8550 F       1  UNL1       -0.1658
@<TRIPOS>BOND
     1    10    11    1
     2    11    12   ar
     3    12    13   ar
     4    13    14   ar
     5    14    17    1
     6    17    18   ar
     7    18    19   ar
     8    19    20   ar
     9    20    21   ar
    10    21    22   ar
    11    14    15   ar
    12    15     1    1
    13     1     2    2
    14     1     3   am
    15     3     4    1
    16     4     5    1
    17     5     6    1
    18     6     7    1
    19     5     8    1
    20     8     9    1
    21     9    23    1
    22    23    24    1
    23    24    26    1
    24    26    27   ar
    25    27    28   ar
    26    28    29   ar
    27    29    32    1
    28    32    33    1
    29    32    34    1
    30    32    35    1
    31    29    30   ar
    32    30    31   ar
    33    15    16   ar
    34    16    11   ar
    35    22    17   ar
    36     9     3    1
    37    31    26   ar
    38     7     5    1
    39    24    25    1
