@<TRIPOS>MOLECULE
*****
 24 26 0 0 0
SMALL
GASTEIGER

@<TRIPOS>ATOM
      1 C          65.8488   93.0911   12.2162 C.ar    1  UNL1        0.0030
      2 C          66.5041   93.4056   13.5283 C.ar    1  UNL1        0.0795
      3 C          66.0984   92.6623   14.7664 C.ar    1  UNL1        0.3456
      4 O          66.7538   92.9769   16.0786 O.2     1  UNL1       -0.2445
      5 O          65.0375   91.6046   14.6925 O.2     1  UNL1       -0.4209
      6 C          64.3821   91.2900   13.3803 C.ar    1  UNL1        0.1514
      7 C          63.3211   90.2323   13.3064 C.ar    1  UNL1        0.0745
      8 C          62.6659   89.9178   11.9943 C.ar    1  UNL1        0.1421
      9 C          63.0715   90.6611   10.7561 C.ar    1  UNL1        0.0371
     10 C          64.1325   91.7188   10.8301 C.ar    1  UNL1        0.0059
     11 C          64.7878   92.0333   12.1422 C.ar    1  UNL1        0.0324
     12 C          66.2545   93.8343   10.9780 C.3     1  UNL1        0.0960
     13 C          68.0086   92.3326    9.7873 C.3     1  UNL1        0.0861
     14 N          67.6281   93.6450   10.4059 N.3     1  UNL1       -0.2926
     15 H          67.7470   94.3561    9.6843 H       1  UNL1        0.1236
     16 O          61.6048   88.8600   11.9203 O.3     1  UNL1       -0.4705
     17 C          60.6095   88.8734   10.7982 C.3     1  UNL1        0.2320
     18 C          60.6674   87.8201    9.7318 C.ar    1  UNL1        0.0220
     19 C          59.4764   87.5762    8.8531 C.ar    1  UNL1       -0.0006
     20 C          59.5343   86.5229    7.7866 C.ar    1  UNL1        0.0007
     21 C          60.7831   85.7136    7.5989 C.ar    1  UNL1        0.0114
     22 C          61.9741   85.9575    8.4776 C.ar    1  UNL1        0.0575
     23 CL         63.2230   85.1482    8.2898 Cl      1  UNL1       -0.0823
     24 C          61.9163   87.0107    9.5440 C.ar    1  UNL1        0.0107
@<TRIPOS>BOND
     1    13    14    1
     2    14    12    1
     3    12     1    1
     4     1     2   ar
     5     2     3   ar
     6     3     4    2
     7     3     5   ar
     8     5     6   ar
     9     6     7   ar
    10     7     8   ar
    11     8    16    1
    12    16    17    1
    13    17    18    1
    14    18    19   ar
    15    19    20   ar
    16    20    21   ar
    17    21    22   ar
    18    22    23    1
    19    22    24   ar
    20     8     9   ar
    21     9    10   ar
    22    10    11   ar
    23    11     1   ar
    24    11     6   ar
    25    24    18   ar
    26    14    15    1
@<TRIPOS>MOLECULE
*****
 24 26 0 0 0
SMALL
GASTEIGER

@<TRIPOS>ATOM
      1 C          65.8257   93.0527   12.2295 C.ar    1  UNL1        0.0030
      2 C          66.4869   93.3526   13.5420 C.ar    1  UNL1        0.0795
      3 C          66.0970   92.5856   14.7708 C.ar    1  UNL1        0.3456
      4 O          66.7583   92.8856   16.0834 O.2     1  UNL1       -0.2445
      5 O          65.0459   91.5189   14.6869 O.2     1  UNL1       -0.4209
      6 C          64.3846   91.2189   13.3743 C.ar    1  UNL1        0.1514
      7 C          63.3335   90.1522   13.2905 C.ar    1  UNL1        0.0745
      8 C          62.6723   89.8523   11.9780 C.ar    1  UNL1        0.1421
      9 C          63.0622   90.6192   10.7492 C.ar    1  UNL1        0.0371
     10 C          64.1133   91.6860   10.8330 C.ar    1  UNL1        0.0059
     11 C          64.7745   91.9859   12.1456 C.ar    1  UNL1        0.0324
     12 C          66.2156   93.8196   11.0007 C.3     1  UNL1        0.0960
     13 C          68.0129   92.2114   10.0346 C.3     1  UNL1        0.0861
     14 N          67.5614   93.6006   10.3755 N.3     1  UNL1       -0.2926
     15 H          67.5732   94.1355    9.5071 H       1  UNL1        0.1236
     16 O          61.6211   88.7854   11.8941 O.3     1  UNL1       -0.4705
     17 C          61.3628   88.0879   10.5915 C.3     1  UNL1        0.2320
     18 C          62.0197   86.7706   10.3031 C.ar    1  UNL1        0.0220
     19 C          62.4344   86.4301    8.9023 C.ar    1  UNL1       -0.0006
     20 C          63.0913   85.1128    8.6139 C.ar    1  UNL1        0.0007
     21 C          63.3334   84.1359    9.7261 C.ar    1  UNL1        0.0114
     22 C          62.9186   84.4764   11.1269 C.ar    1  UNL1        0.0575
     23 CL         63.1607   83.4996   12.2391 Cl      1  UNL1       -0.0823
     24 C          62.2618   85.7937   11.4153 C.ar    1  UNL1        0.0107
@<TRIPOS>BOND
     1    13    14    1
     2    14    12    1
     3    12     1    1
     4     1     2   ar
     5     2     3   ar
     6     3     4    2
     7     3     5   ar
     8     5     6   ar
     9     6     7   ar
    10     7     8   ar
    11     8    16    1
    12    16    17    1
    13    17    18    1
    14    18    19   ar
    15    19    20   ar
    16    20    21   ar
    17    21    22   ar
    18    22    23    1
    19    22    24   ar
    20     8     9   ar
    21     9    10   ar
    22    10    11   ar
    23    11     1   ar
    24    11     6   ar
    25    24    18   ar
    26    14    15    1
@<TRIPOS>MOLECULE
*****
 24 26 0 0 0
SMALL
GASTEIGER

@<TRIPOS>ATOM
      1 C          65.3623   92.0285   13.3333 C.ar    1  UNL1        0.0030
      2 C          66.2632   93.0808   12.7579 C.ar    1  UNL1        0.0795
      3 C          66.1401   93.4655   11.3133 C.ar    1  UNL1        0.3456
      4 O          67.0410   94.5178   10.7380 O.2     1  UNL1       -0.2445
      5 O          65.1161   92.7979   10.4441 O.2     1  UNL1       -0.4209
      6 C          64.2151   91.7455   11.0194 C.ar    1  UNL1        0.1514
      7 C          63.1911   91.0780   10.1501 C.ar    1  UNL1        0.0745
      8 C          62.2902   90.0257   10.7255 C.ar    1  UNL1        0.1421
      9 C          62.4133   89.6410   12.1701 C.ar    1  UNL1        0.0371
     10 C          63.4373   90.3086   13.0393 C.ar    1  UNL1        0.0059
     11 C          64.3382   91.3609   12.4640 C.ar    1  UNL1        0.0324
     12 C          65.4854   91.6438   14.7779 C.3     1  UNL1        0.0960
     13 C          67.2318   92.9323   16.2062 C.3     1  UNL1        0.0861
     14 N          65.8069   92.6867   15.8069 N.3     1  UNL1       -0.2926
     15 H          65.4436   93.5716   15.4528 H       1  UNL1        0.1236
     16 O          61.2661   89.3580    9.8562 O.3     1  UNL1       -0.4705
     17 C          60.7246   88.0113   10.2343 C.3     1  UNL1        0.2320
     18 C          61.5817   86.7894   10.0850 C.ar    1  UNL1        0.0220
     19 C          62.2268   86.4824    8.7660 C.ar    1  UNL1       -0.0006
     20 C          63.0840   85.2605    8.6167 C.ar    1  UNL1        0.0007
     21 C          63.2961   84.3456    9.7863 C.ar    1  UNL1        0.0114
     22 C          62.6510   84.6526   11.1053 C.ar    1  UNL1        0.0575
     23 CL         62.8630   83.7377   12.2749 Cl      1  UNL1       -0.0823
     24 C          61.7938   85.8745   11.2546 C.ar    1  UNL1        0.0107
@<TRIPOS>BOND
     1    13    14    1
     2    14    12    1
     3    12     1    1
     4     1     2   ar
     5     2     3   ar
     6     3     4    2
     7     3     5   ar
     8     5     6   ar
     9     6     7   ar
    10     7     8   ar
    11     8    16    1
    12    16    17    1
    13    17    18    1
    14    18    19   ar
    15    19    20   ar
    16    20    21   ar
    17    21    22   ar
    18    22    23    1
    19    22    24   ar
    20     8     9   ar
    21     9    10   ar
    22    10    11   ar
    23    11     1   ar
    24    11     6   ar
    25    24    18   ar
    26    14    15    1
@<TRIPOS>MOLECULE
*****
 24 26 0 0 0
SMALL
GASTEIGER

@<TRIPOS>ATOM
      1 C          61.8495   87.3009   10.3349 C.ar    1  UNL1        0.0030
      2 C          61.9378   85.9405   10.9604 C.ar    1  UNL1        0.0795
      3 C          62.6511   85.7609   12.2677 C.ar    1  UNL1        0.3456
      4 O          62.7394   84.4004   12.8931 O.2     1  UNL1       -0.2445
      5 O          63.2760   86.9418   12.9495 O.2     1  UNL1       -0.4209
      6 C          63.1876   88.3024   12.3240 C.ar    1  UNL1        0.1514
      7 C          63.8125   89.4833   13.0058 C.ar    1  UNL1        0.0745
      8 C          63.7242   90.8438   12.3803 C.ar    1  UNL1        0.1421
      9 C          63.0109   91.0233   11.0730 C.ar    1  UNL1        0.0371
     10 C          62.3860   89.8424   10.3912 C.ar    1  UNL1        0.0059
     11 C          62.4744   88.4819   11.0167 C.ar    1  UNL1        0.0324
     12 C          61.1362   87.4805    9.0276 C.3     1  UNL1        0.0960
     13 C          59.0191   86.7382    7.7174 C.3     1  UNL1        0.0861
     14 N          60.2502   86.3908    8.5008 N.3     1  UNL1       -0.2926
     15 H          60.8288   85.8073    7.8965 H       1  UNL1        0.1236
     16 O          64.3491   92.0248   13.0621 O.3     1  UNL1       -0.4705
     17 C          65.8297   92.2471   12.9700 C.3     1  UNL1        0.2320
     18 C          66.4046   92.9953   11.8040 C.ar    1  UNL1        0.0220
     19 C          66.1124   94.4565   11.6327 C.ar    1  UNL1       -0.0006
     20 C          66.6874   95.2047   10.4666 C.ar    1  UNL1        0.0007
     21 C          67.5545   94.4916    9.4718 C.ar    1  UNL1        0.0114
     22 C          67.8467   93.0303    9.6431 C.ar    1  UNL1        0.0575
     23 CL         68.7138   92.3172    8.6484 Cl      1  UNL1       -0.0823
     24 C          67.2718   92.2821   10.8091 C.ar    1  UNL1        0.0107
@<TRIPOS>BOND
     1    13    14    1
     2    14    12    1
     3    12     1    1
     4     1     2   ar
     5     2     3   ar
     6     3     4    2
     7     3     5   ar
     8     5     6   ar
     9     6     7   ar
    10     7     8   ar
    11     8    16    1
    12    16    17    1
    13    17    18    1
    14    18    19   ar
    15    19    20   ar
    16    20    21   ar
    17    21    22   ar
    18    22    23    1
    19    22    24   ar
    20     8     9   ar
    21     9    10   ar
    22    10    11   ar
    23    11     1   ar
    24    11     6   ar
    25    24    18   ar
    26    14    15    1
@<TRIPOS>MOLECULE
*****
 24 26 0 0 0
SMALL
GASTEIGER

@<TRIPOS>ATOM
      1 C          64.7330   91.4635   13.4290 C.ar    1  UNL1        0.0030
      2 C          64.6167   91.1238   14.8854 C.ar    1  UNL1        0.0795
      3 C          63.5032   90.2394   15.3627 C.ar    1  UNL1        0.3456
      4 O          63.3870   89.8998   16.8192 O.2     1  UNL1       -0.2445
      5 O          62.5059   89.6946   14.3836 O.2     1  UNL1       -0.4209
      6 C          62.6221   90.0342   12.9272 C.ar    1  UNL1        0.1514
      7 C          61.6248   89.4895   11.9481 C.ar    1  UNL1        0.0745
      8 C          61.7411   89.8291   10.4917 C.ar    1  UNL1        0.1421
      9 C          62.8546   90.7135   10.0144 C.ar    1  UNL1        0.0371
     10 C          63.8519   91.2583   10.9935 C.ar    1  UNL1        0.0059
     11 C          63.7357   90.9187   12.4498 C.ar    1  UNL1        0.0324
     12 C          65.8465   92.3479   12.9517 C.3     1  UNL1        0.0960
     13 C          67.2253   93.5294   14.8098 C.3     1  UNL1        0.0861
     14 N          66.1994   93.5886   13.7171 N.3     1  UNL1       -0.2926
     15 H          66.5341   94.2698   13.0356 H       1  UNL1        0.1236
     16 O          60.7438   89.2843    9.5126 O.3     1  UNL1       -0.4705
     17 C          60.2638   87.8689    9.6401 C.3     1  UNL1        0.2320
     18 C          61.2543   86.7454    9.7201 C.ar    1  UNL1        0.0220
     19 C          62.0318   86.3429    8.5021 C.ar    1  UNL1       -0.0006
     20 C          63.0224   85.2192    8.5822 C.ar    1  UNL1        0.0007
     21 C          63.2354   84.4982    9.8801 C.ar    1  UNL1        0.0114
     22 C          62.4578   84.9007   11.0980 C.ar    1  UNL1        0.0575
     23 CL         62.6708   84.1796   12.3960 Cl      1  UNL1       -0.0823
     24 C          61.4673   86.0242   11.0181 C.ar    1  UNL1        0.0107
@<TRIPOS>BOND
     1    13    14    1
     2    14    12    1
     3    12     1    1
     4     1     2   ar
     5     2     3   ar
     6     3     4    2
     7     3     5   ar
     8     5     6   ar
     9     6     7   ar
    10     7     8   ar
    11     8    16    1
    12    16    17    1
    13    17    18    1
    14    18    19   ar
    15    19    20   ar
    16    20    21   ar
    17    21    22   ar
    18    22    23    1
    19    22    24   ar
    20     8     9   ar
    21     9    10   ar
    22    10    11   ar
    23    11     1   ar
    24    11     6   ar
    25    24    18   ar
    26    14    15    1
@<TRIPOS>MOLECULE
*****
 24 26 0 0 0
SMALL
GASTEIGER

@<TRIPOS>ATOM
      1 C          66.0646   92.5242   13.9614 C.ar    1  UNL1        0.0030
      2 C          66.5446   93.6574   13.1039 C.ar    1  UNL1        0.0795
      3 C          66.0025   93.8296   11.7159 C.ar    1  UNL1        0.3456
      4 O          66.4826   94.9629   10.8584 O.2     1  UNL1       -0.2445
      5 O          64.9804   92.8685   11.1854 O.2     1  UNL1       -0.4209
      6 C          64.5003   91.7351   12.0428 C.ar    1  UNL1        0.1514
      7 C          63.4782   90.7740   11.5123 C.ar    1  UNL1        0.0745
      8 C          62.9982   89.6408   12.3698 C.ar    1  UNL1        0.1421
      9 C          63.5402   89.4687   13.7578 C.ar    1  UNL1        0.0371
     10 C          64.5624   90.4298   14.2883 C.ar    1  UNL1        0.0059
     11 C          65.0424   91.5630   13.4308 C.ar    1  UNL1        0.0324
     12 C          66.6067   92.3520   15.3493 C.3     1  UNL1        0.0960
     13 C          68.8133   93.6011   15.9157 C.3     1  UNL1        0.0861
     14 N          67.3214   93.4866   16.0214 N.3     1  UNL1       -0.2926
     15 H          66.9321   94.3481   15.6383 H       1  UNL1        0.1236
     16 O          61.9760   88.6796   11.8392 O.3     1  UNL1       -0.4705
     17 C          62.4156   87.4317   11.1326 C.3     1  UNL1        0.2320
     18 C          61.6612   86.9449    9.9310 C.ar    1  UNL1        0.0220
     19 C          60.2222   87.3247    9.7443 C.ar    1  UNL1       -0.0006
     20 C          59.4678   86.8378    8.5427 C.ar    1  UNL1        0.0007
     21 C          60.1524   85.9711    7.5278 C.ar    1  UNL1        0.0114
     22 C          61.5915   85.5913    7.7145 C.ar    1  UNL1        0.0575
     23 CL         62.2761   84.7245    6.6996 Cl      1  UNL1       -0.0823
     24 C          62.3459   86.0781    8.9160 C.ar    1  UNL1        0.0107
@<TRIPOS>BOND
     1    13    14    1
     2    14    12    1
     3    12     1    1
     4     1     2   ar
     5     2     3   ar
     6     3     4    2
     7     3     5   ar
     8     5     6   ar
     9     6     7   ar
    10     7     8   ar
    11     8    16    1
    12    16    17    1
    13    17    18    1
    14    18    19   ar
    15    19    20   ar
    16    20    21   ar
    17    21    22   ar
    18    22    23    1
    19    22    24   ar
    20     8     9   ar
    21     9    10   ar
    22    10    11   ar
    23    11     1   ar
    24    11     6   ar
    25    24    18   ar
    26    14    15    1
@<TRIPOS>MOLECULE
*****
 24 26 0 0 0
SMALL
GASTEIGER

@<TRIPOS>ATOM
      1 C          64.5849   91.3988   13.1107 C.ar    1  UNL1        0.0030
      2 C          64.4990   91.1029   14.5787 C.ar    1  UNL1        0.0795
      3 C          63.3568   90.2917   15.1147 C.ar    1  UNL1        0.3456
      4 O          63.2709   89.9958   16.5827 O.2     1  UNL1       -0.2445
      5 O          62.3004   89.7765   14.1827 O.2     1  UNL1       -0.4209
      6 C          62.3863   90.0724   12.7146 C.ar    1  UNL1        0.1514
      7 C          61.3299   89.5572   11.7826 C.ar    1  UNL1        0.0745
      8 C          61.4158   89.8531   10.3147 C.ar    1  UNL1        0.1421
      9 C          62.5581   90.6643    9.7787 C.ar    1  UNL1        0.0371
     10 C          63.6144   91.1795   10.7107 C.ar    1  UNL1        0.0059
     11 C          63.5285   90.8836   12.1786 C.ar    1  UNL1        0.0324
     12 C          65.7271   92.2100   12.5747 C.3     1  UNL1        0.0960
     13 C          66.2086   94.5349   11.5198 C.3     1  UNL1        0.0861
     14 N          65.6874   93.7072   12.6570 N.3     1  UNL1       -0.2926
     15 H          64.7104   93.9690   12.7882 H       1  UNL1        0.1236
     16 O          60.3595   89.3378    9.3826 O.3     1  UNL1       -0.4705
     17 C          59.9874   87.8848    9.4005 C.3     1  UNL1        0.2320
     18 C          60.9360   86.8609    8.8512 C.ar    1  UNL1        0.0220
     19 C          62.2579   86.6277    9.5207 C.ar    1  UNL1       -0.0006
     20 C          63.2065   85.6037    8.9713 C.ar    1  UNL1        0.0007
     21 C          62.8331   84.8130    7.7526 C.ar    1  UNL1        0.0114
     22 C          61.5112   85.0462    7.0831 C.ar    1  UNL1        0.0575
     23 CL         61.1379   84.2555    5.8644 Cl      1  UNL1       -0.0823
     24 C          60.5627   86.0701    7.6324 C.ar    1  UNL1        0.0107
@<TRIPOS>BOND
     1    13    14    1
     2    14    12    1
     3    12     1    1
     4     1     2   ar
     5     2     3   ar
     6     3     4    2
     7     3     5   ar
     8     5     6   ar
     9     6     7   ar
    10     7     8   ar
    11     8    16    1
    12    16    17    1
    13    17    18    1
    14    18    19   ar
    15    19    20   ar
    16    20    21   ar
    17    21    22   ar
    18    22    23    1
    19    22    24   ar
    20     8     9   ar
    21     9    10   ar
    22    10    11   ar
    23    11     1   ar
    24    11     6   ar
    25    24    18   ar
    26    14    15    1
@<TRIPOS>MOLECULE
*****
 24 26 0 0 0
SMALL
GASTEIGER

@<TRIPOS>ATOM
      1 C          60.0484   87.4885    8.7175 C.ar    1  UNL1        0.0030
      2 C          59.4737   88.2990    9.8412 C.ar    1  UNL1        0.0795
      3 C          59.9823   88.1090   11.2395 C.ar    1  UNL1        0.3456
      4 O          59.4075   88.9196   12.3632 O.2     1  UNL1       -0.2445
      5 O          61.0656   87.1086   11.5141 O.2     1  UNL1       -0.4209
      6 C          61.6404   86.2980   10.3904 C.ar    1  UNL1        0.1514
      7 C          62.7237   85.2976   10.6650 C.ar    1  UNL1        0.0745
      8 C          63.2985   84.4871    9.5413 C.ar    1  UNL1        0.1421
      9 C          62.7899   84.6771    8.1430 C.ar    1  UNL1        0.0371
     10 C          61.7066   85.6775    7.8684 C.ar    1  UNL1        0.0059
     11 C          61.1318   86.4880    8.9921 C.ar    1  UNL1        0.0324
     12 C          59.5399   87.6785    7.3192 C.3     1  UNL1        0.0960
     13 C          59.2722   89.9367    6.0627 C.3     1  UNL1        0.0861
     14 N          58.7175   88.8856    6.9778 N.3     1  UNL1       -0.2926
     15 H          57.8581   88.5442    6.5473 H       1  UNL1        0.1236
     16 O          64.3819   83.4866    9.8159 O.3     1  UNL1       -0.4705
     17 C          64.0666   82.2269   10.5668 C.3     1  UNL1        0.2320
     18 C          63.5596   82.3011   11.9765 C.ar    1  UNL1        0.0220
     19 C          64.2722   83.1512   12.9861 C.ar    1  UNL1       -0.0006
     20 C          63.7651   83.2254   14.3959 C.ar    1  UNL1        0.0007
     21 C          62.5454   82.4494   14.7960 C.ar    1  UNL1        0.0114
     22 C          61.8328   81.5992   13.7864 C.ar    1  UNL1        0.0575
     23 CL         60.6131   80.8232   14.1865 Cl      1  UNL1       -0.0823
     24 C          62.3398   81.5251   12.3767 C.ar    1  UNL1        0.0107
@<TRIPOS>BOND
     1    13    14    1
     2    14    12    1
     3    12     1    1
     4     1     2   ar
     5     2     3   ar
     6     3     4    2
     7     3     5   ar
     8     5     6   ar
     9     6     7   ar
    10     7     8   ar
    11     8    16    1
    12    16    17    1
    13    17    18    1
    14    18    19   ar
    15    19    20   ar
    16    20    21   ar
    17    21    22   ar
    18    22    23    1
    19    22    24   ar
    20     8     9   ar
    21     9    10   ar
    22    10    11   ar
    23    11     1   ar
    24    11     6   ar
    25    24    18   ar
    26    14    15    1
@<TRIPOS>MOLECULE
*****
 24 26 0 0 0
SMALL
GASTEIGER

@<TRIPOS>ATOM
      1 C          61.7845   87.0704   10.8936 C.ar    1  UNL1        0.0030
      2 C          60.8825   87.1059    9.6957 C.ar    1  UNL1        0.0795
      3 C          60.6093   88.4069    9.0008 C.ar    1  UNL1        0.3456
      4 O          59.7073   88.4425    7.8028 O.2     1  UNL1       -0.2445
      5 O          61.2382   89.6724    9.5039 O.2     1  UNL1       -0.4209
      6 C          62.1403   89.6369   10.7019 C.ar    1  UNL1        0.1514
      7 C          62.7692   90.9023   11.2050 C.ar    1  UNL1        0.0745
      8 C          63.6712   90.8667   12.4029 C.ar    1  UNL1        0.1421
      9 C          63.9443   89.5657   13.0977 C.ar    1  UNL1        0.0371
     10 C          63.3154   88.3003   12.5947 C.ar    1  UNL1        0.0059
     11 C          62.4134   88.3359   11.3967 C.ar    1  UNL1        0.0324
     12 C          62.0576   85.7694   11.5884 C.3     1  UNL1        0.0960
     13 C          63.0605   83.3728   11.5641 C.3     1  UNL1        0.0861
     14 N          62.7770   84.6695   10.8654 N.3     1  UNL1       -0.2926
     15 H          62.2190   84.4444   10.0418 H       1  UNL1        0.1236
     16 O          64.3001   92.1322   12.9060 O.3     1  UNL1       -0.4705
     17 C          65.7889   92.3050   12.8462 C.3     1  UNL1        0.2320
     18 C          66.4135   93.0353   11.6944 C.ar    1  UNL1        0.0220
     19 C          66.1634   94.5031   11.5126 C.ar    1  UNL1       -0.0006
     20 C          66.7880   95.2333   10.3608 C.ar    1  UNL1        0.0007
     21 C          67.6626   94.4958    9.3908 C.ar    1  UNL1        0.0114
     22 C          67.9128   93.0280    9.5725 C.ar    1  UNL1        0.0575
     23 CL         68.7874   92.2905    8.6025 Cl      1  UNL1       -0.0823
     24 C          67.2882   92.2978   10.7243 C.ar    1  UNL1        0.0107
@<TRIPOS>BOND
     1    13    14    1
     2    14    12    1
     3    12     1    1
     4     1     2   ar
     5     2     3   ar
     6     3     4    2
     7     3     5   ar
     8     5     6   ar
     9     6     7   ar
    10     7     8   ar
    11     8    16    1
    12    16    17    1
    13    17    18    1
    14    18    19   ar
    15    19    20   ar
    16    20    21   ar
    17    21    22   ar
    18    22    23    1
    19    22    24   ar
    20     8     9   ar
    21     9    10   ar
    22    10    11   ar
    23    11     1   ar
    24    11     6   ar
    25    24    18   ar
    26    14    15    1
