@<TRIPOS>MOLECULE
*****
 26 29 0 0 0
SMALL
GASTEIGER

@<TRIPOS>ATOM
      1 C          64.4740   90.5904   14.5513 C.ar    1  UNL1        0.0537
      2 C          64.5951   89.1457   14.9361 C.ar    1  UNL1        0.0061
      3 C          64.0736   88.0791   14.0194 C.ar    1  UNL1        0.0193
      4 C          63.4310   88.4571   12.7179 C.ar    1  UNL1        0.0824
      5 C          63.3098   89.9019   12.3330 C.ar    1  UNL1        0.0193
      6 C          63.8313   90.9685   13.2497 C.ar    1  UNL1        0.0061
      7 N          62.9095   87.3905   11.8012 N.ar    1  UNL1       -0.2339
      8 N          62.2525   87.6146   10.4714 N.ar    1  UNL1       -0.1617
      9 C          61.8904   86.2751    9.9018 C.ar    1  UNL1        0.1720
     10 C          62.3236   85.2231   10.8794 C.ar    1  UNL1        0.0443
     11 C          62.9534   85.9125   12.0533 C.ar    1  UNL1        0.0628
     12 C          63.4854   85.1053   13.2002 C.3     1  UNL1        0.0777
     13 C          63.3877   83.6087   13.1731 C.3     1  UNL1        0.1489
     14 O          62.7579   82.9194   11.9991 O.3     1  UNL1       -0.3485
     15 C          62.2258   83.7266   10.8523 C.3     1  UNL1        0.1713
     16 C          61.2140   86.0305    8.5855 C.3     1  UNL1        0.4363
     17 F          60.5374   85.7858    7.2692 F       1  UNL1       -0.1644
     18 F          59.9032   86.4516    9.1809 F       1  UNL1       -0.1644
     19 F          62.5246   85.6093    7.9901 F       1  UNL1       -0.1644
     20 O          64.0965   92.2577   16.5077 O.2     1  UNL1       -0.2699
     21 C          64.9955   91.6571   15.4680 C.2     1  UNL1        0.2490
     22 N          66.4159   92.1229   15.3449 N.am    1  UNL1       -0.2761
     23 C          67.0747   93.1756   16.1865 C.3     1  UNL1        0.0938
     24 C          68.4929   93.3213   15.7204 C.3     1  UNL1        0.0233
     25 C          68.7108   92.3586   14.5908 C.3     1  UNL1        0.0233
     26 C          67.4272   91.6180   14.3588 C.3     1  UNL1        0.0938
@<TRIPOS>BOND
     1    20    21    2
     2    21     1    1
     3     1     2   ar
     4     2     3   ar
     5     3     4   ar
     6     4     7    1
     7     7     8   ar
     8     8     9   ar
     9     9    16    1
    10    16    17    1
    11    16    18    1
    12    16    19    1
    13     9    10   ar
    14    10    11   ar
    15    11    12    1
    16    12    13    1
    17    13    14    1
    18    14    15    1
    19     4     5   ar
    20     5     6   ar
    21    21    22   am
    22    22    23    1
    23    23    24    1
    24    24    25    1
    25    25    26    1
    26     6     1   ar
    27    26    22    1
    28    11     7   ar
    29    15    10    1
@<TRIPOS>MOLECULE
*****
 26 29 0 0 0
SMALL
GASTEIGER

@<TRIPOS>ATOM
      1 C          64.3343   90.4079   14.6143 C.ar    1  UNL1        0.0537
      2 C          63.7257   90.6975   13.2743 C.ar    1  UNL1        0.0061
      3 C          63.2868   89.5681   12.3900 C.ar    1  UNL1        0.0193
      4 C          63.4566   88.1492   12.8456 C.ar    1  UNL1        0.0824
      5 C          64.0653   87.8596   14.1857 C.ar    1  UNL1        0.0193
      6 C          64.5042   88.9889   15.0700 C.ar    1  UNL1        0.0061
      7 N          63.0178   87.0198   11.9613 N.ar    1  UNL1       -0.2339
      8 N          63.4050   85.5788   12.1141 N.ar    1  UNL1       -0.1617
      9 C          62.7412   84.8016   11.0162 C.ar    1  UNL1        0.1720
     10 C          61.9437   85.7624   10.1849 C.ar    1  UNL1        0.0443
     11 C          62.1147   87.1334   10.7690 C.ar    1  UNL1        0.0628
     12 C          61.4259   88.3079   10.1398 C.3     1  UNL1        0.0777
     13 C          60.5662   88.1116    8.9265 C.3     1  UNL1        0.1489
     14 O          60.3953   86.7406    8.3423 O.3     1  UNL1       -0.3485
     15 C          61.0840   85.5660    8.9715 C.3     1  UNL1        0.1713
     16 C          62.8548   83.3232   10.7893 C.3     1  UNL1        0.4363
     17 F          62.9685   81.8448   10.5624 F       1  UNL1       -0.1644
     18 F          63.6044   83.5764    9.5150 F       1  UNL1       -0.1644
     19 F          62.1053   83.0701   12.0636 F       1  UNL1       -0.1644
     20 O          63.8056   92.1519   16.4660 O.2     1  UNL1       -0.2699
     21 C          64.7732   91.5372   15.4986 C.2     1  UNL1        0.2490
     22 N          66.1797   92.0518   15.4155 N.am    1  UNL1       -0.2761
     23 C          66.7595   93.1691   16.2315 C.3     1  UNL1        0.0938
     24 C          68.1914   93.3473   15.8221 C.3     1  UNL1        0.0233
     25 C          68.4967   92.3404   14.7530 C.3     1  UNL1        0.0233
     26 C          67.2534   91.5397   14.5017 C.3     1  UNL1        0.0938
@<TRIPOS>BOND
     1    20    21    2
     2    21     1    1
     3     1     2   ar
     4     2     3   ar
     5     3     4   ar
     6     4     7    1
     7     7     8   ar
     8     8     9   ar
     9     9    16    1
    10    16    17    1
    11    16    18    1
    12    16    19    1
    13     9    10   ar
    14    10    11   ar
    15    11    12    1
    16    12    13    1
    17    13    14    1
    18    14    15    1
    19     4     5   ar
    20     5     6   ar
    21    21    22   am
    22    22    23    1
    23    23    24    1
    24    24    25    1
    25    25    26    1
    26     6     1   ar
    27    26    22    1
    28    11     7   ar
    29    15    10    1
@<TRIPOS>MOLECULE
*****
 26 29 0 0 0
SMALL
GASTEIGER

@<TRIPOS>ATOM
      1 C          61.4840   88.4256   10.0296 C.ar    1  UNL1        0.0537
      2 C          61.6781   89.8684    9.6681 C.ar    1  UNL1        0.0061
      3 C          62.5925   90.7304   10.4871 C.ar    1  UNL1        0.0193
      4 C          63.3128   90.1498   11.6676 C.ar    1  UNL1        0.0824
      5 C          63.1188   88.7070   12.0292 C.ar    1  UNL1        0.0193
      6 C          62.2044   87.8449   11.2102 C.ar    1  UNL1        0.0061
      7 N          64.2272   91.0119   12.4866 N.ar    1  UNL1       -0.2339
      8 N          64.5235   90.8439   13.9475 N.ar    1  UNL1       -0.1617
      9 C          65.4852   91.9214   14.3522 C.ar    1  UNL1        0.1720
     10 C          65.7834   92.7554   13.1416 C.ar    1  UNL1        0.0443
     11 C          65.0059   92.1932   11.9886 C.ar    1  UNL1        0.0628
     12 C          65.1074   92.8297   10.6341 C.3     1  UNL1        0.0777
     13 C          65.9864   94.0283   10.4327 C.3     1  UNL1        0.1489
     14 O          66.7639   94.5904   11.5857 O.3     1  UNL1       -0.3485
     15 C          66.6624   93.9540   12.9401 C.3     1  UNL1        0.1713
     16 C          66.0498   92.1287   15.7264 C.3     1  UNL1        0.4363
     17 F          66.6144   92.3360   17.1006 F       1  UNL1       -0.1644
     18 F          67.4313   91.8841   15.1957 F       1  UNL1       -0.1644
     19 F          64.6684   92.3733   16.2571 F       1  UNL1       -0.1644
     20 O          59.0907   87.8133    9.2254 O.2     1  UNL1       -0.2699
     21 C          60.5696   87.5636    9.2106 C.2     1  UNL1        0.2490
     22 N          61.1343   86.4519    8.3768 N.am    1  UNL1       -0.2761
     23 C          60.3483   85.5123    7.5110 C.3     1  UNL1        0.0938
     24 C          61.3122   84.5643    6.8615 C.3     1  UNL1        0.0233
     25 C          62.6941   84.9179    7.3259 C.3     1  UNL1        0.0233
     26 C          62.5842   86.0844    8.2623 C.3     1  UNL1        0.0938
@<TRIPOS>BOND
     1    20    21    2
     2    21     1    1
     3     1     2   ar
     4     2     3   ar
     5     3     4   ar
     6     4     7    1
     7     7     8   ar
     8     8     9   ar
     9     9    16    1
    10    16    17    1
    11    16    18    1
    12    16    19    1
    13     9    10   ar
    14    10    11   ar
    15    11    12    1
    16    12    13    1
    17    13    14    1
    18    14    15    1
    19     4     5   ar
    20     5     6   ar
    21    21    22   am
    22    22    23    1
    23    23    24    1
    24    24    25    1
    25    25    26    1
    26     6     1   ar
    27    26    22    1
    28    11     7   ar
    29    15    10    1
@<TRIPOS>MOLECULE
*****
 26 29 0 0 0
SMALL
GASTEIGER

@<TRIPOS>ATOM
      1 C          62.0975   88.8320   10.8616 C.ar    1  UNL1        0.0537
      2 C          62.2778   89.9470    9.8746 C.ar    1  UNL1        0.0061
      3 C          63.1849   91.0967   10.1994 C.ar    1  UNL1        0.0193
      4 C          63.9115   91.1315   11.5111 C.ar    1  UNL1        0.0824
      5 C          63.7311   90.0164   12.4982 C.ar    1  UNL1        0.0193
      6 C          62.8241   88.8667   12.1733 C.ar    1  UNL1        0.0061
      7 N          64.8186   92.2812   11.8359 N.ar    1  UNL1       -0.2339
      8 N          65.1715   93.4127   10.9167 N.ar    1  UNL1       -0.1617
      9 C          66.1030   94.3320   11.6497 C.ar    1  UNL1        0.1720
     10 C          66.3257   93.7686   13.0219 C.ar    1  UNL1        0.0443
     11 C          65.5319   92.5011   13.1370 C.ar    1  UNL1        0.0628
     12 C          65.5611   91.7109   14.4117 C.3     1  UNL1        0.0777
     13 C          66.3842   92.1883   15.5712 C.3     1  UNL1        0.1489
     14 O          67.1780   93.4558   15.4561 O.3     1  UNL1       -0.3485
     15 C          67.1488   94.2460   14.1815 C.3     1  UNL1        0.1713
     16 C          66.7059   95.5933   11.1060 C.3     1  UNL1        0.4363
     17 F          67.3088   96.8546   10.5622 F       1  UNL1       -0.1644
     18 F          67.5543   94.7843   10.1702 F       1  UNL1       -0.1644
     19 F          65.8575   96.4023   12.0417 F       1  UNL1       -0.1644
     20 O          61.1432   86.4858   11.4401 O.2     1  UNL1       -0.2699
     21 C          61.1904   87.6823   10.5368 C.2     1  UNL1        0.2490
     22 N          60.3306   87.7292    9.3086 N.am    1  UNL1       -0.2761
     23 C          59.3794   86.6608    8.8568 C.3     1  UNL1        0.0938
     24 C          58.7319   87.1240    7.5856 C.3     1  UNL1        0.0233
     25 C          59.2828   88.4787    7.2516 C.3     1  UNL1        0.0233
     26 C          60.2708   88.8527    8.3164 C.3     1  UNL1        0.0938
@<TRIPOS>BOND
     1    20    21    2
     2    21     1    1
     3     1     2   ar
     4     2     3   ar
     5     3     4   ar
     6     4     7    1
     7     7     8   ar
     8     8     9   ar
     9     9    16    1
    10    16    17    1
    11    16    18    1
    12    16    19    1
    13     9    10   ar
    14    10    11   ar
    15    11    12    1
    16    12    13    1
    17    13    14    1
    18    14    15    1
    19     4     5   ar
    20     5     6   ar
    21    21    22   am
    22    22    23    1
    23    23    24    1
    24    24    25    1
    25    25    26    1
    26     6     1   ar
    27    26    22    1
    28    11     7   ar
    29    15    10    1
@<TRIPOS>MOLECULE
*****
 26 29 0 0 0
SMALL
GASTEIGER

@<TRIPOS>ATOM
      1 C          64.7791   91.2737   14.4791 C.ar    1  UNL1        0.0537
      2 C          64.6468   91.7594   13.0661 C.ar    1  UNL1        0.0061
      3 C          63.8910   90.9430   12.0600 C.ar    1  UNL1        0.0193
      4 C          63.2675   89.6409   12.4668 C.ar    1  UNL1        0.0824
      5 C          63.3998   89.1551   13.8799 C.ar    1  UNL1        0.0193
      6 C          64.1556   89.9715   14.8860 C.ar    1  UNL1        0.0061
      7 N          62.5118   88.8244   11.4607 N.ar    1  UNL1       -0.2339
      8 N          61.6735   89.3625   10.3392 N.ar    1  UNL1       -0.1617
      9 C          61.1053   88.1972    9.5849 C.ar    1  UNL1        0.1720
     10 C          61.5923   86.9388   10.2402 C.ar    1  UNL1        0.0443
     11 C          62.4616   87.3265   11.3995 C.ar    1  UNL1        0.0628
     12 C          63.0952   86.2655   12.2497 C.3     1  UNL1        0.0777
     13 C          62.8594   84.8168   11.9404 C.3     1  UNL1        0.1489
     14 O          61.9902   84.4291   10.7811 O.3     1  UNL1       -0.3485
     15 C          61.3566   85.4901    9.9310 C.3     1  UNL1        0.1713
     16 C          60.2076   88.2762    8.3858 C.3     1  UNL1        0.4363
     17 F          59.3098   88.3554    7.1867 F       1  UNL1       -0.1644
     18 F          59.6539   89.5775    8.8861 F       1  UNL1       -0.1644
     19 F          60.7611   86.9750    7.8855 F       1  UNL1       -0.1644
     20 O          64.8387   92.6010   16.7118 O.2     1  UNL1       -0.2699
     21 C          65.5348   92.0902   15.4852 C.2     1  UNL1        0.2490
     22 N          66.9867   92.3957   15.2647 N.am    1  UNL1       -0.2761
     23 C          67.8681   93.1953   16.1780 C.3     1  UNL1        0.0938
     24 C          69.2382   93.2491   15.5700 C.3     1  UNL1        0.0233
     25 C          69.2037   92.4827   14.2809 C.3     1  UNL1        0.0233
     26 C          67.8123   91.9553   14.0923 C.3     1  UNL1        0.0938
@<TRIPOS>BOND
     1    20    21    2
     2    21     1    1
     3     1     2   ar
     4     2     3   ar
     5     3     4   ar
     6     4     7    1
     7     7     8   ar
     8     8     9   ar
     9     9    16    1
    10    16    17    1
    11    16    18    1
    12    16    19    1
    13     9    10   ar
    14    10    11   ar
    15    11    12    1
    16    12    13    1
    17    13    14    1
    18    14    15    1
    19     4     5   ar
    20     5     6   ar
    21    21    22   am
    22    22    23    1
    23    23    24    1
    24    24    25    1
    25    25    26    1
    26     6     1   ar
    27    26    22    1
    28    11     7   ar
    29    15    10    1
@<TRIPOS>MOLECULE
*****
 26 29 0 0 0
SMALL
GASTEIGER

@<TRIPOS>ATOM
      1 C          62.0988   88.0823   10.8330 C.ar    1  UNL1        0.0537
      2 C          62.3009   89.4461   10.2419 C.ar    1  UNL1        0.0061
      3 C          63.1860   90.4399   10.9341 C.ar    1  UNL1        0.0193
      4 C          63.8689   90.0700   12.2173 C.ar    1  UNL1        0.0824
      5 C          63.6668   88.7062   12.8084 C.ar    1  UNL1        0.0193
      6 C          62.7818   87.7124   12.1162 C.ar    1  UNL1        0.0061
      7 N          64.7539   91.0638   12.9094 N.ar    1  UNL1       -0.2339
      8 N          65.3042   90.9367   14.2990 N.ar    1  UNL1       -0.1617
      9 C          66.1344   92.1535   14.5819 C.ar    1  UNL1        0.1720
     10 C          66.0973   93.0327   13.3671 C.ar    1  UNL1        0.0443
     11 C          65.2441   92.3592   12.3335 C.ar    1  UNL1        0.0628
     12 C          65.0237   93.0125   11.0013 C.3     1  UNL1        0.0777
     13 C          65.6565   94.3393   10.7029 C.3     1  UNL1        0.1489
     14 O          66.5097   95.0128   11.7366 O.3     1  UNL1       -0.3485
     15 C          66.7301   94.3595   13.0687 C.3     1  UNL1        0.1713
     16 C          66.8723   92.4408   15.8559 C.3     1  UNL1        0.4363
     17 F          67.6102   92.7281   17.1299 F       1  UNL1       -0.1644
     18 F          68.1757   92.1872   15.1582 F       1  UNL1       -0.1644
     19 F          65.5690   92.6944   16.5536 F       1  UNL1       -0.1644
     20 O          61.2060   85.6553   10.5832 O.2     1  UNL1       -0.2699
     21 C          61.2138   87.0885   10.1408 C.2     1  UNL1        0.2490
     22 N          60.3366   87.5281    9.0062 N.am    1  UNL1       -0.2761
     23 C          59.4039   86.6527    8.2225 C.3     1  UNL1        0.0938
     24 C          58.7290   87.5037    7.1881 C.3     1  UNL1        0.0233
     25 C          59.2445   88.9050    7.3323 C.3     1  UNL1        0.0233
     26 C          60.2380   88.9201    8.4559 C.3     1  UNL1        0.0938
@<TRIPOS>BOND
     1    20    21    2
     2    21     1    1
     3     1     2   ar
     4     2     3   ar
     5     3     4   ar
     6     4     7    1
     7     7     8   ar
     8     8     9   ar
     9     9    16    1
    10    16    17    1
    11    16    18    1
    12    16    19    1
    13     9    10   ar
    14    10    11   ar
    15    11    12    1
    16    12    13    1
    17    13    14    1
    18    14    15    1
    19     4     5   ar
    20     5     6   ar
    21    21    22   am
    22    22    23    1
    23    23    24    1
    24    24    25    1
    25    25    26    1
    26     6     1   ar
    27    26    22    1
    28    11     7   ar
    29    15    10    1
@<TRIPOS>MOLECULE
*****
 26 29 0 0 0
SMALL
GASTEIGER

@<TRIPOS>ATOM
      1 C          63.0525   83.5476   13.5973 C.ar    1  UNL1        0.0537
      2 C          62.5162   84.3982   12.4842 C.ar    1  UNL1        0.0061
      3 C          62.7891   85.8731   12.4692 C.ar    1  UNL1        0.0193
      4 C          63.5981   86.4975   13.5672 C.ar    1  UNL1        0.0824
      5 C          64.1344   85.6468   14.6803 C.ar    1  UNL1        0.0193
      6 C          63.8616   84.1719   14.6953 C.ar    1  UNL1        0.0061
      7 N          63.8709   87.9724   13.5522 N.ar    1  UNL1       -0.2339
      8 N          64.6199   88.7412   14.6000 N.ar    1  UNL1       -0.1617
      9 C          64.6545   90.1814   14.1821 C.ar    1  UNL1        0.1720
     10 C          63.9269   90.3026   12.8759 C.ar    1  UNL1        0.0443
     11 C          63.4426   88.9374   12.4866 C.ar    1  UNL1        0.0628
     12 C          62.6742   88.7493   11.2122 C.3     1  UNL1        0.0777
     13 C          62.3901   89.9265   10.3271 C.3     1  UNL1        0.1489
     14 O          62.8744   91.2918   10.7164 O.3     1  UNL1       -0.3485
     15 C          63.6428   91.4798   11.9908 C.3     1  UNL1        0.1713
     16 C          65.3028   91.3033   14.9376 C.3     1  UNL1        0.4363
     17 F          65.9511   92.4253   15.6932 F       1  UNL1       -0.1644
     18 F          64.1899   91.2697   15.9427 F       1  UNL1       -0.1644
     19 F          66.4157   91.3370   13.9326 F       1  UNL1       -0.1644
     20 O          62.3927   81.3945   14.8930 O.2     1  UNL1       -0.2699
     21 C          62.7797   82.0727   13.6123 C.2     1  UNL1        0.2490
     22 N          62.8939   81.2760   12.3465 N.am    1  UNL1       -0.2761
     23 C          62.6528   79.8019   12.2077 C.3     1  UNL1        0.0938
     24 C          62.8791   79.4284   10.7728 C.3     1  UNL1        0.0233
     25 C          63.2601   80.6715   10.0246 C.3     1  UNL1        0.0233
     26 C          63.2692   81.8134   10.9972 C.3     1  UNL1        0.0938
@<TRIPOS>BOND
     1    20    21    2
     2    21     1    1
     3     1     2   ar
     4     2     3   ar
     5     3     4   ar
     6     4     7    1
     7     7     8   ar
     8     8     9   ar
     9     9    16    1
    10    16    17    1
    11    16    18    1
    12    16    19    1
    13     9    10   ar
    14    10    11   ar
    15    11    12    1
    16    12    13    1
    17    13    14    1
    18    14    15    1
    19     4     5   ar
    20     5     6   ar
    21    21    22   am
    22    22    23    1
    23    23    24    1
    24    24    25    1
    25    25    26    1
    26     6     1   ar
    27    26    22    1
    28    11     7   ar
    29    15    10    1
@<TRIPOS>MOLECULE
*****
 26 29 0 0 0
SMALL
GASTEIGER

@<TRIPOS>ATOM
      1 C          61.2281   87.7987    9.6465 C.ar    1  UNL1        0.0537
      2 C          61.9813   87.1459   10.7674 C.ar    1  UNL1        0.0061
      3 C          62.7715   87.9840   11.7282 C.ar    1  UNL1        0.0193
      4 C          62.8085   89.4749   11.5682 C.ar    1  UNL1        0.0824
      5 C          62.0552   90.1278   10.4472 C.ar    1  UNL1        0.0193
      6 C          61.2650   89.2896    9.4864 C.ar    1  UNL1        0.0061
      7 N          63.5987   90.3131   12.5290 N.ar    1  UNL1       -0.2339
      8 N          64.6624   91.3058   12.1645 N.ar    1  UNL1       -0.1617
      9 C          65.1850   91.9119   13.4332 C.ar    1  UNL1        0.1720
     10 C          64.4442   91.2937   14.5818 C.ar    1  UNL1        0.0443
     11 C          63.4638   90.3056   14.0229 C.ar    1  UNL1        0.0628
     12 C          62.5749   89.5266   14.9465 C.3     1  UNL1        0.0777
     13 C          62.6664   89.7359   16.4290 C.3     1  UNL1        0.1489
     14 O          63.6468   90.7240   16.9878 O.3     1  UNL1       -0.3485
     15 C          64.5357   91.5029   16.0642 C.3     1  UNL1        0.1713
     16 C          66.2597   92.9533   13.5355 C.3     1  UNL1        0.4363
     17 F          67.3345   93.9947   13.6378 F       1  UNL1       -0.1644
     18 F          66.9714   92.1184   14.5585 F       1  UNL1       -0.1644
     19 F          65.5481   93.7882   12.5126 F       1  UNL1       -0.1644
     20 O          58.9527   87.1414    8.5785 O.2     1  UNL1       -0.2699
     21 C          60.4379   86.9605    8.6857 C.2     1  UNL1        0.2490
     22 N          61.1329   85.9415    7.8323 N.am    1  UNL1       -0.2761
     23 C          60.4787   85.0355    6.8316 C.3     1  UNL1        0.0938
     24 C          61.5456   84.1836    6.2105 C.3     1  UNL1        0.0233
     25 C          62.8593   84.5631    6.8271 C.3     1  UNL1        0.0233
     26 C          62.6043   85.6495    7.8294 C.3     1  UNL1        0.0938
@<TRIPOS>BOND
     1    20    21    2
     2    21     1    1
     3     1     2   ar
     4     2     3   ar
     5     3     4   ar
     6     4     7    1
     7     7     8   ar
     8     8     9   ar
     9     9    16    1
    10    16    17    1
    11    16    18    1
    12    16    19    1
    13     9    10   ar
    14    10    11   ar
    15    11    12    1
    16    12    13    1
    17    13    14    1
    18    14    15    1
    19     4     5   ar
    20     5     6   ar
    21    21    22   am
    22    22    23    1
    23    23    24    1
    24    24    25    1
    25    25    26    1
    26     6     1   ar
    27    26    22    1
    28    11     7   ar
    29    15    10    1
@<TRIPOS>MOLECULE
*****
 26 29 0 0 0
SMALL
GASTEIGER

@<TRIPOS>ATOM
      1 C          65.5015   92.0459   13.4018 C.ar    1  UNL1        0.0537
      2 C          64.3548   91.4288   12.6574 C.ar    1  UNL1        0.0061
      3 C          63.8956   90.0431   13.0024 C.ar    1  UNL1        0.0193
      4 C          64.5830   89.2745   14.0917 C.ar    1  UNL1        0.0824
      5 C          65.7298   89.8917   14.8361 C.ar    1  UNL1        0.0193
      6 C          66.1890   91.2774   14.4912 C.ar    1  UNL1        0.0061
      7 N          64.1238   87.8889   14.4367 N.ar    1  UNL1       -0.2339
      8 N          64.1908   86.6888   13.5392 N.ar    1  UNL1       -0.1617
      9 C          63.6253   85.5183   14.2876 C.ar    1  UNL1        0.1720
     10 C          63.2089   85.9948   15.6476 C.ar    1  UNL1        0.0443
     11 C          63.5170   87.4600   15.7397 C.ar    1  UNL1        0.0628
     12 C          63.2052   88.2143   16.9982 C.3     1  UNL1        0.0777
     13 C          62.5853   87.5034   18.1645 C.3     1  UNL1        0.1489
     14 O          62.2772   86.0383   18.0724 O.3     1  UNL1       -0.3485
     15 C          62.5890   85.2840   16.8139 C.3     1  UNL1        0.1713
     16 C          63.4986   84.1171   13.7674 C.3     1  UNL1        0.4363
     17 F          63.3717   82.7159   13.2471 F       1  UNL1       -0.1644
     18 F          62.0529   84.3646   13.4530 F       1  UNL1       -0.1644
     19 F          64.9441   83.8696   14.0818 F       1  UNL1       -0.1644
     20 O          66.0178   94.4891   14.1191 O.2     1  UNL1       -0.2699
     21 C          65.9607   93.4316   13.0568 C.2     1  UNL1        0.2490
     22 N          66.3628   93.7598   11.6495 N.am    1  UNL1       -0.2761
     23 C          66.8404   95.0939   11.1573 C.3     1  UNL1        0.0938
     24 C          67.1307   94.9702    9.6909 C.3     1  UNL1        0.0233
     25 C          66.8326   93.5596    9.2767 C.3     1  UNL1        0.0233
     26 C          66.3581   92.8115   10.4872 C.3     1  UNL1        0.0938
@<TRIPOS>BOND
     1    20    21    2
     2    21     1    1
     3     1     2   ar
     4     2     3   ar
     5     3     4   ar
     6     4     7    1
     7     7     8   ar
     8     8     9   ar
     9     9    16    1
    10    16    17    1
    11    16    18    1
    12    16    19    1
    13     9    10   ar
    14    10    11   ar
    15    11    12    1
    16    12    13    1
    17    13    14    1
    18    14    15    1
    19     4     5   ar
    20     5     6   ar
    21    21    22   am
    22    22    23    1
    23    23    24    1
    24    24    25    1
    25    25    26    1
    26     6     1   ar
    27    26    22    1
    28    11     7   ar
    29    15    10    1
