@<TRIPOS>MOLECULE
*****
 37 42 0 0 0
SMALL
GASTEIGER

@<TRIPOS>ATOM
      1 C          59.3644   87.1619    8.6562 C.3     1  UNL1        0.0468
      2 C          63.9152   84.0911   12.8487 C.ar    1  UNL1        0.1516
      3 N          64.8663   83.2644   12.0352 N.ar    1  UNL1       -0.2192
      4 C          64.4834   83.4034   10.5915 C.ar    1  UNL1        0.1828
      5 N          63.2956   84.3160   10.5129 N.ar    1  UNL1       -0.2851
      6 C          62.9445   84.7411   11.9078 C.ar    1  UNL1        0.1087
      7 C          61.7860   85.6651   12.1412 C.3     1  UNL1        0.2510
      8 O          60.9788   86.1640   10.9795 O.3     1  UNL1       -0.4678
      9 C          61.3301   85.7389    9.5845 C.ar    1  UNL1        0.1511
     10 C          60.5229   86.2379    8.4228 C.ar    1  UNL1        0.0146
     11 C          60.8740   85.8129    7.0278 C.ar    1  UNL1       -0.0011
     12 C          62.0324   84.8889    6.7945 C.ar    1  UNL1        0.0014
     13 C          62.8396   84.3900    7.9562 C.ar    1  UNL1        0.0206
     14 C          62.4884   84.8150    9.3512 C.ar    1  UNL1        0.0989
     15 C          63.6929   85.7330   16.4549 C.3     1  UNL1        0.1110
     16 N          63.6762   85.5826   14.9625 N.am    1  UNL1       -0.2979
     17 C          63.9319   84.2415   14.3410 C.2     1  UNL1        0.2649
     18 O          64.2042   83.0510   15.2118 O.2     1  UNL1       -0.2684
     19 H          63.4975   86.3640   14.3910 H       1  UNL1        0.1498
     20 C          59.5914   88.6421    8.7427 C.3     1  UNL1        0.0770
     21 N          60.6302   89.1883    9.6767 N.3     1  UNL1       -0.2695
     22 C          62.0855   89.0655    9.3344 C.3     1  UNL1        0.0938
     23 C          63.1244   89.6117   10.2684 C.3     1  UNL1        0.1081
     24 N          62.7080   90.2806   11.5448 N.pl3   1  UNL1       -0.3046
     25 C          61.2528   90.4034   11.8871 C.3     1  UNL1        0.1081
     26 C          60.2139   89.8572   10.9531 C.3     1  UNL1        0.0938
     27 C          63.7468   90.8268   12.4788 C.ar    1  UNL1        0.0493
     28 C          63.9223   90.2234   13.8409 C.ar    1  UNL1        0.0146
     29 C          64.9612   90.7696   14.7750 C.ar    1  UNL1        0.0028
     30 C          65.8245   91.9191   14.3470 C.ar    1  UNL1        0.0192
     31 C          65.6491   92.5225   12.9850 C.ar    1  UNL1        0.0821
     32 N          66.5124   93.6720   12.5570 N.ar    1  UNL1       -0.2496
     33 C          66.3369   94.2754   11.1949 C.ar    1  UNL1        0.0593
     34 C          67.2003   95.4249   10.7670 C.3     1  UNL1        0.0521
     35 C          65.2981   93.7292   10.2609 C.ar    1  UNL1        0.0148
     36 C          64.4347   92.5797   10.6889 C.ar    1  UNL1        0.0039
     37 C          64.6102   91.9763   12.0509 C.ar    1  UNL1        0.0310
@<TRIPOS>BOND
     1    15    16    1
     2    16    17   am
     3    17    18    2
     4    17     2    1
     5     2     3   ar
     6     3     4   ar
     7     4     5   ar
     8     5     6   ar
     9     6     7    1
    10     7     8    1
    11     8     9    1
    12     9    10   ar
    13    10     1    1
    14     1    20    1
    15    20    21    1
    16    21    22    1
    17    22    23    1
    18    23    24    1
    19    24    27    1
    20    27    28   ar
    21    28    29   ar
    22    29    30   ar
    23    30    31   ar
    24    31    32   ar
    25    32    33   ar
    26    33    34    1
    27    33    35   ar
    28    35    36   ar
    29    36    37   ar
    30    24    25    1
    31    25    26    1
    32    10    11   ar
    33    11    12   ar
    34    12    13   ar
    35    13    14   ar
    36     6     2   ar
    37    14     9   ar
    38    14     5    1
    39    26    21    1
    40    37    27   ar
    41    37    31   ar
    42    16    19    1
@<TRIPOS>MOLECULE
*****
 37 42 0 0 0
SMALL
GASTEIGER

@<TRIPOS>ATOM
      1 C          62.3584   84.8451   16.0636 C.3     1  UNL1        0.0468
      2 C          61.9823   85.6552    9.2139 C.ar    1  UNL1        0.1516
      3 N          62.9227   84.6973    8.5443 N.ar    1  UNL1       -0.2192
      4 C          63.6121   83.9015    9.6127 C.ar    1  UNL1        0.1828
      5 N          63.0978   84.3676   10.9425 N.ar    1  UNL1       -0.2851
      6 C          62.0906   85.4514   10.6960 C.ar    1  UNL1        0.1087
      7 C          61.4021   86.1127   11.8530 C.3     1  UNL1        0.2510
      8 O          61.7208   85.6902   13.2565 O.3     1  UNL1       -0.4678
      9 C          62.7282   84.6063   13.5030 C.ar    1  UNL1        0.1511
     10 C          63.0469   84.1838   14.9065 C.ar    1  UNL1        0.0146
     11 C          64.0542   83.1000   15.1530 C.ar    1  UNL1       -0.0011
     12 C          64.7426   82.4388   13.9960 C.ar    1  UNL1        0.0014
     13 C          64.4239   82.8613   12.5925 C.ar    1  UNL1        0.0206
     14 C          63.4166   83.9451   12.3460 C.ar    1  UNL1        0.0989
     15 C          60.1121   89.0427    8.3326 C.3     1  UNL1        0.1110
     16 N          61.0041   88.0545    9.0239 N.am    1  UNL1       -0.2979
     17 C          61.0903   86.6434    8.5226 C.2     1  UNL1        0.2649
     18 O          60.2846   86.2204    7.3302 O.2     1  UNL1       -0.2684
     19 H          61.5329   88.3321    9.8065 H       1  UNL1        0.1498
     20 C          63.0251   85.9791   16.7844 C.3     1  UNL1        0.0770
     21 N          63.4645   87.1957   16.0250 N.3     1  UNL1       -0.2695
     22 C          64.3677   87.0520   14.8360 C.3     1  UNL1        0.0938
     23 C          64.8070   88.2686   14.0765 C.3     1  UNL1        0.1081
     24 N          64.3433   89.6289   14.5060 N.pl3   1  UNL1       -0.3046
     25 C          63.4401   89.7726   15.6949 C.3     1  UNL1        0.1081
     26 C          63.0007   88.5560   16.4544 C.3     1  UNL1        0.0938
     27 C          64.7826   90.8455   13.7465 C.ar    1  UNL1        0.0493
     28 C          64.1488   91.1758   12.4277 C.ar    1  UNL1        0.0146
     29 C          64.5882   92.3924   11.6682 C.ar    1  UNL1        0.0028
     30 C          65.6614   93.2787   12.2275 C.ar    1  UNL1        0.0192
     31 C          66.2952   92.9484   13.5462 C.ar    1  UNL1        0.0821
     32 N          67.3684   93.8346   14.1055 N.ar    1  UNL1       -0.2496
     33 C          68.0022   93.5042   15.4243 C.ar    1  UNL1        0.0593
     34 C          69.0755   94.3905   15.9836 C.3     1  UNL1        0.0521
     35 C          67.5629   92.2877   16.1838 C.ar    1  UNL1        0.0148
     36 C          66.4897   91.4014   15.6245 C.ar    1  UNL1        0.0039
     37 C          65.8558   91.7317   14.3058 C.ar    1  UNL1        0.0310
@<TRIPOS>BOND
     1    15    16    1
     2    16    17   am
     3    17    18    2
     4    17     2    1
     5     2     3   ar
     6     3     4   ar
     7     4     5   ar
     8     5     6   ar
     9     6     7    1
    10     7     8    1
    11     8     9    1
    12     9    10   ar
    13    10     1    1
    14     1    20    1
    15    20    21    1
    16    21    22    1
    17    22    23    1
    18    23    24    1
    19    24    27    1
    20    27    28   ar
    21    28    29   ar
    22    29    30   ar
    23    30    31   ar
    24    31    32   ar
    25    32    33   ar
    26    33    34    1
    27    33    35   ar
    28    35    36   ar
    29    36    37   ar
    30    24    25    1
    31    25    26    1
    32    10    11   ar
    33    11    12   ar
    34    12    13   ar
    35    13    14   ar
    36     6     2   ar
    37    14     9   ar
    38    14     5    1
    39    26    21    1
    40    37    27   ar
    41    37    31   ar
    42    16    19    1
@<TRIPOS>MOLECULE
*****
 37 42 0 0 0
SMALL
GASTEIGER

@<TRIPOS>ATOM
      1 C          59.8509   87.6841    9.3309 C.3     1  UNL1        0.0468
      2 C          63.9869   83.8064   13.2771 C.ar    1  UNL1        0.1516
      3 N          64.7971   82.8927   12.4060 N.ar    1  UNL1       -0.2192
      4 C          64.4141   83.1524   10.9792 C.ar    1  UNL1        0.1828
      5 N          63.3672   84.2266   10.9685 N.ar    1  UNL1       -0.2851
      6 C          63.1032   84.6307   12.3887 C.ar    1  UNL1        0.1087
      7 C          62.0921   85.6972   12.6894 C.3     1  UNL1        0.2510
      8 O          61.3450   86.3595   11.5699 O.3     1  UNL1       -0.4678
      9 C          61.6091   85.9553   10.1497 C.ar    1  UNL1        0.1511
     10 C          60.8620   86.6176    9.0302 C.ar    1  UNL1        0.0146
     11 C          61.1260   86.2135    7.6100 C.ar    1  UNL1       -0.0011
     12 C          62.1371   85.1471    7.3093 C.ar    1  UNL1        0.0014
     13 C          62.8841   84.4848    8.4288 C.ar    1  UNL1        0.0206
     14 C          62.6201   84.8889    9.8490 C.ar    1  UNL1        0.0989
     15 C          63.8476   85.2602   16.9672 C.3     1  UNL1        0.1110
     16 N          63.7851   85.1842   15.4705 N.am    1  UNL1       -0.2979
     17 C          64.0494   83.8823   14.7739 C.2     1  UNL1        0.2649
     18 O          64.3763   82.6564   15.5741 O.2     1  UNL1       -0.2684
     19 H          63.5705   85.9888   14.9453 H       1  UNL1        0.1498
     20 C          59.9746   88.5036   10.5812 C.3     1  UNL1        0.0770
     21 N          61.1317   89.4428   10.7510 N.3     1  UNL1       -0.2695
     22 C          61.6910   89.7044   12.1181 C.3     1  UNL1        0.0938
     23 C          62.8481   90.6436   12.2879 C.3     1  UNL1        0.1081
     24 N          63.4461   91.3211   11.0907 N.pl3   1  UNL1       -0.3046
     25 C          62.8869   91.0595    9.7236 C.3     1  UNL1        0.1081
     26 C          61.7297   90.1203    9.5538 C.3     1  UNL1        0.0938
     27 C          64.6033   92.2603   11.2605 C.ar    1  UNL1        0.0493
     28 C          64.9569   93.2208   10.1639 C.ar    1  UNL1        0.0146
     29 C          66.1141   94.1600   10.3337 C.ar    1  UNL1        0.0028
     30 C          66.9177   94.1387   11.6001 C.ar    1  UNL1        0.0192
     31 C          66.5642   93.1783   12.6966 C.ar    1  UNL1        0.0821
     32 N          67.3678   93.1570   13.9630 N.ar    1  UNL1       -0.2496
     33 C          67.0142   92.1965   15.0596 C.ar    1  UNL1        0.0593
     34 C          67.8178   92.1752   16.3260 C.3     1  UNL1        0.0521
     35 C          65.8570   91.2573   14.8898 C.ar    1  UNL1        0.0148
     36 C          65.0534   91.2786   13.6234 C.ar    1  UNL1        0.0039
     37 C          65.4069   92.2390   12.5269 C.ar    1  UNL1        0.0310
@<TRIPOS>BOND
     1    15    16    1
     2    16    17   am
     3    17    18    2
     4    17     2    1
     5     2     3   ar
     6     3     4   ar
     7     4     5   ar
     8     5     6   ar
     9     6     7    1
    10     7     8    1
    11     8     9    1
    12     9    10   ar
    13    10     1    1
    14     1    20    1
    15    20    21    1
    16    21    22    1
    17    22    23    1
    18    23    24    1
    19    24    27    1
    20    27    28   ar
    21    28    29   ar
    22    29    30   ar
    23    30    31   ar
    24    31    32   ar
    25    32    33   ar
    26    33    34    1
    27    33    35   ar
    28    35    36   ar
    29    36    37   ar
    30    24    25    1
    31    25    26    1
    32    10    11   ar
    33    11    12   ar
    34    12    13   ar
    35    13    14   ar
    36     6     2   ar
    37    14     9   ar
    38    14     5    1
    39    26    21    1
    40    37    27   ar
    41    37    31   ar
    42    16    19    1
@<TRIPOS>MOLECULE
*****
 37 42 0 0 0
SMALL
GASTEIGER

@<TRIPOS>ATOM
      1 C          60.3036   89.4880    6.6274 C.3     1  UNL1        0.0468
      2 C          62.1122   93.6833    1.4463 C.ar    1  UNL1        0.1516
      3 N          60.8927   94.3761    0.9144 N.ar    1  UNL1       -0.2192
      4 C          59.7092   93.9042    1.7061 C.ar    1  UNL1        0.1828
      5 N          60.1973   92.9198    2.7273 N.ar    1  UNL1       -0.2851
      6 C          61.6824   92.7834    2.5667 C.ar    1  UNL1        0.1087
      7 C          62.4516   91.8571    3.4615 C.3     1  UNL1        0.2510
      8 O          61.7356   91.0674    4.5168 O.3     1  UNL1       -0.4678
      9 C          60.2504   91.2039    4.6773 C.ar    1  UNL1        0.1511
     10 C          59.5344   90.4142    5.7326 C.ar    1  UNL1        0.0146
     11 C          58.0493   90.5506    5.8932 C.ar    1  UNL1       -0.0011
     12 C          57.2802   91.4768    4.9984 C.ar    1  UNL1        0.0014
     13 C          57.9962   92.2665    3.9431 C.ar    1  UNL1        0.0206
     14 C          59.4813   92.1301    3.7826 C.ar    1  UNL1        0.0989
     15 C          65.3090   95.3004   -0.2610 C.3     1  UNL1        0.1110
     16 N          63.9061   95.1240    0.2396 N.am    1  UNL1       -0.2979
     17 C          63.5152   93.8597    0.9458 C.2     1  UNL1        0.2649
     18 O          64.5272   92.7718    1.1513 O.2     1  UNL1       -0.2684
     19 H          63.2419   95.8381    0.1047 H       1  UNL1        0.1498
     20 C          59.6450   88.8961    7.8382 C.3     1  UNL1        0.0770
     21 N          60.4793   88.4411    8.9987 N.3     1  UNL1       -0.2695
     22 C          61.5433   89.3398    9.5556 C.3     1  UNL1        0.0938
     23 C          62.3776   88.8848   10.7162 C.3     1  UNL1        0.1081
     24 N          62.1479   87.5310   11.3198 N.pl3   1  UNL1       -0.3046
     25 C          61.0839   86.6322   10.7630 C.3     1  UNL1        0.1081
     26 C          60.2496   87.0872    9.6024 C.3     1  UNL1        0.0938
     27 C          62.9822   87.0760   12.4804 C.ar    1  UNL1        0.0493
     28 C          63.6168   88.0862   13.3897 C.ar    1  UNL1        0.0146
     29 C          64.4510   87.6312   14.5502 C.ar    1  UNL1        0.0028
     30 C          64.6508   86.1659   14.8015 C.ar    1  UNL1        0.0192
     31 C          64.0163   85.1557   13.8923 C.ar    1  UNL1        0.0821
     32 N          64.2160   83.6904   14.1435 N.ar    1  UNL1       -0.2496
     33 C          63.5814   82.6802   13.2342 C.ar    1  UNL1        0.0593
     34 C          63.7812   81.2150   13.4855 C.3     1  UNL1        0.0521
     35 C          62.7471   83.1352   12.0737 C.ar    1  UNL1        0.0148
     36 C          62.5474   84.6005   11.8224 C.ar    1  UNL1        0.0039
     37 C          63.1819   85.6107   12.7316 C.ar    1  UNL1        0.0310
@<TRIPOS>BOND
     1    15    16    1
     2    16    17   am
     3    17    18    2
     4    17     2    1
     5     2     3   ar
     6     3     4   ar
     7     4     5   ar
     8     5     6   ar
     9     6     7    1
    10     7     8    1
    11     8     9    1
    12     9    10   ar
    13    10     1    1
    14     1    20    1
    15    20    21    1
    16    21    22    1
    17    22    23    1
    18    23    24    1
    19    24    27    1
    20    27    28   ar
    21    28    29   ar
    22    29    30   ar
    23    30    31   ar
    24    31    32   ar
    25    32    33   ar
    26    33    34    1
    27    33    35   ar
    28    35    36   ar
    29    36    37   ar
    30    24    25    1
    31    25    26    1
    32    10    11   ar
    33    11    12   ar
    34    12    13   ar
    35    13    14   ar
    36     6     2   ar
    37    14     9   ar
    38    14     5    1
    39    26    21    1
    40    37    27   ar
    41    37    31   ar
    42    16    19    1
@<TRIPOS>MOLECULE
*****
 37 42 0 0 0
SMALL
GASTEIGER

@<TRIPOS>ATOM
      1 C          59.3097   90.1306    7.3879 C.3     1  UNL1        0.0468
      2 C          63.3000   88.9181   12.8946 C.ar    1  UNL1        0.1516
      3 N          63.5189   87.4411   13.0384 N.ar    1  UNL1       -0.2192
      4 C          62.7861   86.7533   11.9249 C.ar    1  UNL1        0.1828
      5 N          62.1142   87.8052   11.0929 N.ar    1  UNL1       -0.2851
      6 C          62.4319   89.1430   11.6922 C.ar    1  UNL1        0.1087
      7 C          61.8895   90.3934   11.0656 C.3     1  UNL1        0.2510
      8 O          61.0296   90.3058    9.8397 O.3     1  UNL1       -0.4678
      9 C          60.7120   88.9678    9.2404 C.ar    1  UNL1        0.1511
     10 C          59.8520   88.8802    8.0145 C.ar    1  UNL1        0.0146
     11 C          59.5344   87.5424    7.4152 C.ar    1  UNL1       -0.0011
     12 C          60.0767   86.2921    8.0418 C.ar    1  UNL1        0.0014
     13 C          60.9367   86.3797    9.2677 C.ar    1  UNL1        0.0206
     14 C          61.2543   87.7176    9.8670 C.ar    1  UNL1        0.0989
     15 C          63.9002   91.1763   16.1024 C.3     1  UNL1        0.1110
     16 N          63.3479   90.1113   15.2019 N.am    1  UNL1       -0.2979
     17 C          63.8522   89.9831   13.7950 C.2     1  UNL1        0.2649
     18 O          64.9087   90.9198   13.2887 O.2     1  UNL1       -0.2684
     19 H          62.6545   89.4965   15.5343 H       1  UNL1        0.1498
     20 C          58.9279   90.1378    5.9373 C.3     1  UNL1        0.0770
     21 N          59.7481   90.9136    4.9498 N.3     1  UNL1       -0.2695
     22 C          59.1233   92.0335    4.1714 C.3     1  UNL1        0.0938
     23 C          59.9435   92.8093    3.1839 C.3     1  UNL1        0.1081
     24 N          61.3885   92.4653    2.9746 N.pl3   1  UNL1       -0.3046
     25 C          62.0132   91.3456    3.7528 C.3     1  UNL1        0.1081
     26 C          61.1930   90.5697    4.7405 C.3     1  UNL1        0.0938
     27 C          62.2087   93.2412    1.9870 C.ar    1  UNL1        0.0493
     28 C          63.5258   93.8270    2.4019 C.ar    1  UNL1        0.0146
     29 C          64.3460   94.6028    1.4144 C.ar    1  UNL1        0.0028
     30 C          63.8491   94.7929    0.0119 C.ar    1  UNL1        0.0192
     31 C          62.5321   94.2071   -0.4031 C.ar    1  UNL1        0.0821
     32 N          62.0352   94.3972   -1.8056 N.ar    1  UNL1       -0.2496
     33 C          60.7181   93.8114   -2.2205 C.ar    1  UNL1        0.0593
     34 C          60.2212   94.0015   -3.6230 C.3     1  UNL1        0.0521
     35 C          59.8979   93.0356   -1.2329 C.ar    1  UNL1        0.0148
     36 C          60.3947   92.8455    0.1696 C.ar    1  UNL1        0.0039
     37 C          61.7118   93.4313    0.5845 C.ar    1  UNL1        0.0310
@<TRIPOS>BOND
     1    15    16    1
     2    16    17   am
     3    17    18    2
     4    17     2    1
     5     2     3   ar
     6     3     4   ar
     7     4     5   ar
     8     5     6   ar
     9     6     7    1
    10     7     8    1
    11     8     9    1
    12     9    10   ar
    13    10     1    1
    14     1    20    1
    15    20    21    1
    16    21    22    1
    17    22    23    1
    18    23    24    1
    19    24    27    1
    20    27    28   ar
    21    28    29   ar
    22    29    30   ar
    23    30    31   ar
    24    31    32   ar
    25    32    33   ar
    26    33    34    1
    27    33    35   ar
    28    35    36   ar
    29    36    37   ar
    30    24    25    1
    31    25    26    1
    32    10    11   ar
    33    11    12   ar
    34    12    13   ar
    35    13    14   ar
    36     6     2   ar
    37    14     9   ar
    38    14     5    1
    39    26    21    1
    40    37    27   ar
    41    37    31   ar
    42    16    19    1
@<TRIPOS>MOLECULE
*****
 37 42 0 0 0
SMALL
GASTEIGER

@<TRIPOS>ATOM
      1 C          62.8248   89.7487   16.9238 C.3     1  UNL1        0.0468
      2 C          61.7579   89.9729   10.1027 C.ar    1  UNL1        0.1516
      3 N          62.8195   90.8136    9.4576 N.ar    1  UNL1       -0.2192
      4 C          63.7385   91.3071   10.5354 C.ar    1  UNL1        0.1828
      5 N          63.2449   90.7715   11.8467 N.ar    1  UNL1       -0.2851
      6 C          62.0208   89.9469   11.5792 C.ar    1  UNL1        0.1087
      7 C          61.3037   89.2789   12.7148 C.3     1  UNL1        0.2510
      8 O          61.8107   89.4355   14.1178 O.3     1  UNL1       -0.4678
      9 C          63.0349   90.2601   14.3852 C.ar    1  UNL1        0.1511
     10 C          63.5419   90.4168   15.7882 C.ar    1  UNL1        0.0146
     11 C          64.7660   91.2413   16.0557 C.ar    1  UNL1       -0.0011
     12 C          65.4831   91.9093   14.9201 C.ar    1  UNL1        0.0014
     13 C          64.9761   91.7527   13.5171 C.ar    1  UNL1        0.0206
     14 C          63.7520   90.9281   13.2497 C.ar    1  UNL1        0.0989
     15 C          59.1338   88.9910    7.2921 C.3     1  UNL1        0.1110
     16 N          60.2605   89.6840    7.9993 N.am    1  UNL1       -0.2979
     17 C          60.6311   89.2799    9.3955 C.2     1  UNL1        0.2649
     18 O          59.8750   88.1828   10.0844 O.2     1  UNL1       -0.2684
     19 H          60.7568   90.4041    7.5471 H       1  UNL1        0.1498
     20 C          63.2616   88.3924   17.3925 C.3     1  UNL1        0.0770
     21 N          63.2939   87.2413   16.4313 N.3     1  UNL1       -0.2695
     22 C          62.3624   86.0807   16.6194 C.3     1  UNL1        0.0938
     23 C          62.3948   84.9296   15.6583 C.3     1  UNL1        0.1081
     24 N          63.3587   84.9390   14.5090 N.pl3   1  UNL1       -0.3046
     25 C          64.2902   86.0995   14.3209 C.3     1  UNL1        0.1081
     26 C          64.2578   87.2507   15.2820 C.3     1  UNL1        0.0938
     27 C          63.3911   83.7879   13.5479 C.ar    1  UNL1        0.0493
     28 C          63.5889   82.3908   14.0572 C.ar    1  UNL1        0.0146
     29 C          63.6213   81.2397   13.0960 C.ar    1  UNL1        0.0028
     30 C          63.4559   81.4855   11.6256 C.ar    1  UNL1        0.0192
     31 C          63.2581   82.8824   11.1163 C.ar    1  UNL1        0.0821
     32 N          63.0927   83.1283    9.6458 N.ar    1  UNL1       -0.2496
     33 C          62.8948   84.5253    9.1365 C.ar    1  UNL1        0.0593
     34 C          62.7294   84.7711    7.6661 C.3     1  UNL1        0.0521
     35 C          62.8624   85.6764   10.0977 C.ar    1  UNL1        0.0148
     36 C          63.0279   85.4306   11.5681 C.ar    1  UNL1        0.0039
     37 C          63.2257   84.0337   12.0774 C.ar    1  UNL1        0.0310
@<TRIPOS>BOND
     1    15    16    1
     2    16    17   am
     3    17    18    2
     4    17     2    1
     5     2     3   ar
     6     3     4   ar
     7     4     5   ar
     8     5     6   ar
     9     6     7    1
    10     7     8    1
    11     8     9    1
    12     9    10   ar
    13    10     1    1
    14     1    20    1
    15    20    21    1
    16    21    22    1
    17    22    23    1
    18    23    24    1
    19    24    27    1
    20    27    28   ar
    21    28    29   ar
    22    29    30   ar
    23    30    31   ar
    24    31    32   ar
    25    32    33   ar
    26    33    34    1
    27    33    35   ar
    28    35    36   ar
    29    36    37   ar
    30    24    25    1
    31    25    26    1
    32    10    11   ar
    33    11    12   ar
    34    12    13   ar
    35    13    14   ar
    36     6     2   ar
    37    14     9   ar
    38    14     5    1
    39    26    21    1
    40    37    27   ar
    41    37    31   ar
    42    16    19    1
@<TRIPOS>MOLECULE
*****
 37 42 0 0 0
SMALL
GASTEIGER

@<TRIPOS>ATOM
      1 C          63.0829   89.8468   16.0533 C.3     1  UNL1        0.0468
      2 C          63.7606   83.8960   12.6117 C.ar    1  UNL1        0.1516
      3 N          63.6940   82.7495   13.5767 N.ar    1  UNL1       -0.2192
      4 C          63.5025   83.3130   14.9535 C.ar    1  UNL1        0.1828
      5 N          63.4508   84.8078   14.8395 N.ar    1  UNL1       -0.2851
      6 C          63.6103   85.1680   13.3922 C.ar    1  UNL1        0.1087
      7 C          63.5981   86.6079   12.9720 C.3     1  UNL1        0.2510
      8 O          63.4264   87.6875   13.9991 O.3     1  UNL1       -0.4678
      9 C          63.2668   87.3272   15.4464 C.ar    1  UNL1        0.1511
     10 C          63.0951   88.4068   16.4736 C.ar    1  UNL1        0.0146
     11 C          62.9356   88.0466   17.9209 C.ar    1  UNL1       -0.0011
     12 C          62.9478   86.6067   18.3410 C.ar    1  UNL1        0.0014
     13 C          63.1195   85.5271   17.3139 C.ar    1  UNL1        0.0206
     14 C          63.2790   85.8874   15.8666 C.ar    1  UNL1        0.0989
     15 C          63.3127   84.5394    8.7213 C.3     1  UNL1        0.1110
     16 N          63.1282   84.6462   10.2061 N.am    1  UNL1       -0.2979
     17 C          63.9451   83.7891   11.1270 C.2     1  UNL1        0.2649
     18 O          64.9466   82.8252   10.5631 O.2     1  UNL1       -0.2684
     19 H          62.4709   85.2789   10.5762 H       1  UNL1        0.1498
     20 C          64.3042   90.6954   16.2487 C.3     1  UNL1        0.0770
     21 N          64.8048   91.5585   15.1287 N.3     1  UNL1       -0.2695
     22 C          65.8521   92.5991   15.3943 C.3     1  UNL1        0.0938
     23 C          66.3527   93.4622   14.2743 C.3     1  UNL1        0.1081
     24 N          65.8061   93.2848   12.8887 N.pl3   1  UNL1       -0.3046
     25 C          64.7589   92.2442   12.6232 C.3     1  UNL1        0.1081
     26 C          64.2582   91.3811   13.7432 C.3     1  UNL1        0.0938
     27 C          66.3067   94.1479   11.7688 C.ar    1  UNL1        0.0493
     28 C          65.9785   95.6114   11.7454 C.ar    1  UNL1        0.0146
     29 C          66.4791   96.4745   10.6254 C.ar    1  UNL1        0.0028
     30 C          67.3080   95.8741    9.5287 C.ar    1  UNL1        0.0192
     31 C          67.6362   94.4107    9.5521 C.ar    1  UNL1        0.0821
     32 N          68.4651   93.8104    8.4555 N.ar    1  UNL1       -0.2496
     33 C          68.7933   92.3468    8.4789 C.ar    1  UNL1        0.0593
     34 C          69.6222   91.7465    7.3822 C.3     1  UNL1        0.0521
     35 C          68.2927   91.4837    9.5989 C.ar    1  UNL1        0.0148
     36 C          67.4638   92.0841   10.6955 C.ar    1  UNL1        0.0039
     37 C          67.1356   93.5475   10.6721 C.ar    1  UNL1        0.0310
@<TRIPOS>BOND
     1    15    16    1
     2    16    17   am
     3    17    18    2
     4    17     2    1
     5     2     3   ar
     6     3     4   ar
     7     4     5   ar
     8     5     6   ar
     9     6     7    1
    10     7     8    1
    11     8     9    1
    12     9    10   ar
    13    10     1    1
    14     1    20    1
    15    20    21    1
    16    21    22    1
    17    22    23    1
    18    23    24    1
    19    24    27    1
    20    27    28   ar
    21    28    29   ar
    22    29    30   ar
    23    30    31   ar
    24    31    32   ar
    25    32    33   ar
    26    33    34    1
    27    33    35   ar
    28    35    36   ar
    29    36    37   ar
    30    24    25    1
    31    25    26    1
    32    10    11   ar
    33    11    12   ar
    34    12    13   ar
    35    13    14   ar
    36     6     2   ar
    37    14     9   ar
    38    14     5    1
    39    26    21    1
    40    37    27   ar
    41    37    31   ar
    42    16    19    1
