@<TRIPOS>MOLECULE
*****
 31 33 0 0 0
SMALL
GASTEIGER

@<TRIPOS>ATOM
      1 C          62.6992   88.9601   12.2139 C.ar    1  UNL1        0.1663
      2 C          62.5674   90.2318   11.4295 C.ar    1  UNL1        0.0942
      3 CL         61.5211   90.3490   10.3611 Cl      1  UNL1       -0.0790
      4 C          63.4819   91.3864   11.7134 C.ar    1  UNL1        0.0304
      5 C          64.5282   91.2693   12.7818 C.ar    1  UNL1        0.0667
      6 C          64.6600   89.9976   13.5663 C.ar    1  UNL1        0.0304
      7 C          63.7455   88.8430   13.2824 C.ar    1  UNL1        0.0942
      8 CL         63.8774   87.5713   14.0668 Cl      1  UNL1       -0.0790
      9 N          65.4427   92.4239   13.0657 N.pl3   1  UNL1       -0.2149
     10 H          65.7415   92.6001   13.9871 H       1  UNL1        0.1737
     11 S          65.9019   93.3099   11.9459 S.O2    1  UNL1        0.0744
     12 O          66.5143   94.2504   12.9411 O.2     1  UNL1       -0.1499
     13 O          65.2896   92.3694   10.9507 O.2     1  UNL1       -0.1499
     14 C          66.3611   94.1960   10.8261 C.ar    1  UNL1        0.1357
     15 C          65.7732   95.5665   10.6647 C.ar    1  UNL1        0.0219
     16 C          66.2324   96.4525    9.5449 C.ar    1  UNL1        0.0128
     17 C          67.2795   95.9681    8.5864 C.ar    1  UNL1        0.0586
     18 CL         67.7388   96.8541    7.4665 Cl      1  UNL1       -0.0822
     19 C          67.8675   94.5975    8.7477 C.ar    1  UNL1        0.0241
     20 C          67.4083   93.7114    9.8675 C.ar    1  UNL1        0.0773
     21 CL         67.9962   92.3409   10.0288 Cl      1  UNL1       -0.0808
     22 O          61.7847   87.8056   11.9300 O.3     1  UNL1       -0.4502
     23 C          63.1119   84.3253   10.5602 C.ar    1  UNL1        0.0569
     24 C          63.0671   84.5674    9.0806 C.ar    1  UNL1        0.1019
     25 N          62.5947   85.8888    8.5507 N.ar    1  UNL1       -0.2390
     26 C          62.1673   86.9682    9.5005 C.ar    1  UNL1        0.1362
     27 C          62.2122   86.7262   10.9802 C.ar    1  UNL1        0.1645
     28 C          62.6845   85.4047   11.5100 C.ar    1  UNL1        0.0435
     29 C          62.6572   82.1452   11.8982 C.3     1  UNL1        0.0773
     30 C          63.5843   83.0039   11.0901 C.2     1  UNL1        0.1751
     31 O          64.9837   82.5412   10.8118 O.2     1  UNL1       -0.2913
@<TRIPOS>BOND
     1    29    30    1
     2    30    31    2
     3    30    23    1
     4    23    24   ar
     5    24    25   ar
     6    25    26   ar
     7    26    27   ar
     8    27    22    1
     9    22     1    1
    10     1     2   ar
    11     2     3    1
    12     2     4   ar
    13     4     5   ar
    14     5     9    1
    15     9    11    1
    16    11    12    2
    17    11    13    2
    18    11    14    1
    19    14    15   ar
    20    15    16   ar
    21    16    17   ar
    22    17    18    1
    23    17    19   ar
    24    19    20   ar
    25    20    21    1
    26     5     6   ar
    27     6     7   ar
    28     7     8    1
    29    27    28   ar
    30    28    23   ar
    31     7     1   ar
    32    20    14   ar
    33     9    10    1
@<TRIPOS>MOLECULE
*****
 31 33 0 0 0
SMALL
GASTEIGER

@<TRIPOS>ATOM
      1 C          64.5470   91.5384   12.5000 C.ar    1  UNL1        0.1663
      2 C          63.8777   91.4566   11.1601 C.ar    1  UNL1        0.0942
      3 CL         64.2760   92.3999   10.0639 Cl      1  UNL1       -0.0790
      4 C          62.8101   90.4315   10.9163 C.ar    1  UNL1        0.0304
      5 C          62.4118   89.4882   12.0125 C.ar    1  UNL1        0.0667
      6 C          63.0811   89.5700   13.3524 C.ar    1  UNL1        0.0304
      7 C          64.1487   90.5951   13.5962 C.ar    1  UNL1        0.0942
      8 CL         64.8180   90.6769   14.9361 Cl      1  UNL1       -0.0790
      9 N          61.3442   88.4631   11.7687 N.pl3   1  UNL1       -0.2149
     10 H          60.5975   88.3696   12.4035 H       1  UNL1        0.1737
     11 S          61.4143   87.5806   10.5578 S.O2    1  UNL1        0.0744
     12 O          61.2100   88.7759    9.6749 O.2     1  UNL1       -0.1499
     13 O          61.6187   86.3854   11.4408 O.2     1  UNL1       -0.1499
     14 C          61.4844   86.6981    9.3470 C.ar    1  UNL1        0.1357
     15 C          62.7594   85.9817    9.0138 C.ar    1  UNL1        0.0219
     16 C          62.8295   85.0991    7.8030 C.ar    1  UNL1        0.0128
     17 C          61.6246   84.9330    6.9252 C.ar    1  UNL1        0.0586
     18 CL         61.6947   84.0505    5.7143 Cl      1  UNL1       -0.0822
     19 C          60.3495   85.6495    7.2583 C.ar    1  UNL1        0.0241
     20 C          60.2794   86.5320    8.4692 C.ar    1  UNL1        0.0773
     21 CL         59.0044   87.2484    8.8023 Cl      1  UNL1       -0.0808
     22 O          65.6146   92.5635   12.7437 O.3     1  UNL1       -0.4502
     23 C          66.9180   94.8906    9.8050 C.ar    1  UNL1        0.0569
     24 C          68.0896   94.0945    9.3115 C.ar    1  UNL1        0.1019
     25 N          68.4362   92.7882    9.9621 N.ar    1  UNL1       -0.2390
     26 C          67.6113   92.2778   11.1061 C.ar    1  UNL1        0.1362
     27 C          66.4396   93.0738   11.5996 C.ar    1  UNL1        0.1645
     28 C          66.0930   94.3802   10.9491 C.ar    1  UNL1        0.0435
     29 C          67.5396   96.8444    8.2094 C.3     1  UNL1        0.0773
     30 C          66.5713   96.1969    9.1545 C.2     1  UNL1        0.1751
     31 O          65.2564   96.8558    9.4490 O.2     1  UNL1       -0.2913
@<TRIPOS>BOND
     1    29    30    1
     2    30    31    2
     3    30    23    1
     4    23    24   ar
     5    24    25   ar
     6    25    26   ar
     7    26    27   ar
     8    27    22    1
     9    22     1    1
    10     1     2   ar
    11     2     3    1
    12     2     4   ar
    13     4     5   ar
    14     5     9    1
    15     9    11    1
    16    11    12    2
    17    11    13    2
    18    11    14    1
    19    14    15   ar
    20    15    16   ar
    21    16    17   ar
    22    17    18    1
    23    17    19   ar
    24    19    20   ar
    25    20    21    1
    26     5     6   ar
    27     6     7   ar
    28     7     8    1
    29    27    28   ar
    30    28    23   ar
    31     7     1   ar
    32    20    14   ar
    33     9    10    1
@<TRIPOS>MOLECULE
*****
 31 33 0 0 0
SMALL
GASTEIGER

@<TRIPOS>ATOM
      1 C          63.5272   89.7107   14.3563 C.ar    1  UNL1        0.1663
      2 C          63.5366   88.5862   13.3636 C.ar    1  UNL1        0.0942
      3 CL         63.5409   88.8838   11.8934 Cl      1  UNL1       -0.0790
      4 C          63.5418   87.1642   13.8410 C.ar    1  UNL1        0.0304
      5 C          63.5375   86.8667   15.3112 C.ar    1  UNL1        0.0667
      6 C          63.5281   87.9911   16.3039 C.ar    1  UNL1        0.0304
      7 C          63.5230   89.4130   15.8266 C.ar    1  UNL1        0.0942
      8 CL         63.5135   90.5375   16.8193 Cl      1  UNL1       -0.0790
      9 N          63.5427   85.4447   15.7886 N.pl3   1  UNL1       -0.2149
     10 H          63.6500   85.2477   16.7471 H       1  UNL1        0.1737
     11 S          63.3844   84.3229   14.8054 S.O2    1  UNL1        0.0744
     12 O          61.8951   84.3872   14.9718 O.2     1  UNL1       -0.1499
     13 O          64.8738   84.2586   14.6390 O.2     1  UNL1       -0.1499
     14 C          63.2262   83.2011   13.8223 C.ar    1  UNL1        0.1357
     15 C          63.2723   81.7781   14.2943 C.ar    1  UNL1        0.0219
     16 C          63.1141   80.6563   13.3111 C.ar    1  UNL1        0.0128
     17 C          62.9096   80.9575   11.8560 C.ar    1  UNL1        0.0586
     18 CL         62.7513   79.8358   10.8729 Cl      1  UNL1       -0.0822
     19 C          62.8634   82.3806   11.3840 C.ar    1  UNL1        0.0241
     20 C          63.0217   83.5024   12.3671 C.ar    1  UNL1        0.0773
     21 CL         62.9755   84.9255   11.8951 Cl      1  UNL1       -0.0808
     22 O          63.5220   91.1326   13.8790 O.3     1  UNL1       -0.4502
     23 C          67.2696   92.4342   13.7697 C.ar    1  UNL1        0.0569
     24 C          67.3261   93.0200   12.3900 C.ar    1  UNL1        0.1019
     25 N          66.1146   92.9767   11.5066 N.ar    1  UNL1       -0.2390
     26 C          64.8466   92.3476   12.0029 C.ar    1  UNL1        0.1362
     27 C          64.7901   91.7618   13.3826 C.ar    1  UNL1        0.1645
     28 C          66.0016   91.8051   14.2660 C.ar    1  UNL1        0.0435
     29 C          68.3211   92.5733   16.1414 C.3     1  UNL1        0.0773
     30 C          68.4811   92.4775   14.6530 C.2     1  UNL1        0.1751
     31 O          69.8527   92.4250   14.0481 O.2     1  UNL1       -0.2913
@<TRIPOS>BOND
     1    29    30    1
     2    30    31    2
     3    30    23    1
     4    23    24   ar
     5    24    25   ar
     6    25    26   ar
     7    26    27   ar
     8    27    22    1
     9    22     1    1
    10     1     2   ar
    11     2     3    1
    12     2     4   ar
    13     4     5   ar
    14     5     9    1
    15     9    11    1
    16    11    12    2
    17    11    13    2
    18    11    14    1
    19    14    15   ar
    20    15    16   ar
    21    16    17   ar
    22    17    18    1
    23    17    19   ar
    24    19    20   ar
    25    20    21    1
    26     5     6   ar
    27     6     7   ar
    28     7     8    1
    29    27    28   ar
    30    28    23   ar
    31     7     1   ar
    32    20    14   ar
    33     9    10    1
@<TRIPOS>MOLECULE
*****
 31 33 0 0 0
SMALL
GASTEIGER

@<TRIPOS>ATOM
      1 C          63.5390   89.7603   14.2949 C.ar    1  UNL1        0.1663
      2 C          63.5618   89.4737   15.7671 C.ar    1  UNL1        0.0942
      3 CL         63.5690   90.6055   16.7515 Cl      1  UNL1       -0.0790
      4 C          63.5775   88.0553   16.2549 C.ar    1  UNL1        0.0304
      5 C          63.5703   86.9235   15.2706 C.ar    1  UNL1        0.0667
      6 C          63.5475   87.2101   13.7984 C.ar    1  UNL1        0.0304
      7 C          63.5319   88.6285   13.3106 C.ar    1  UNL1        0.0942
      8 CL         63.5091   88.9151   11.8384 Cl      1  UNL1       -0.0790
      9 N          63.5860   85.5052   15.7584 N.pl3   1  UNL1       -0.2149
     10 H          63.7052   85.3157   16.7171 H       1  UNL1        0.1737
     11 S          63.4201   84.3756   14.7855 S.O2    1  UNL1        0.0744
     12 O          64.9083   84.3083   14.6099 O.2     1  UNL1       -0.1499
     13 O          61.9319   84.4429   14.9612 O.2     1  UNL1       -0.1499
     14 C          63.2542   83.2460   13.8127 C.ar    1  UNL1        0.1357
     15 C          63.3473   81.8265   14.2886 C.ar    1  UNL1        0.0219
     16 C          63.1814   80.6969   13.3157 C.ar    1  UNL1        0.0128
     17 C          62.9224   80.9867   11.8670 C.ar    1  UNL1        0.0586
     18 CL         62.7565   79.8571   10.8941 Cl      1  UNL1       -0.0822
     19 C          62.8294   82.4062   11.3910 C.ar    1  UNL1        0.0241
     20 C          62.9953   83.5359   12.3639 C.ar    1  UNL1        0.0773
     21 CL         62.9022   84.9553   11.8880 Cl      1  UNL1       -0.0808
     22 O          63.5234   91.1787   13.8071 O.3     1  UNL1       -0.4502
     23 C          67.2671   92.4913   13.6996 C.ar    1  UNL1        0.0569
     24 C          67.3181   93.0904   12.3254 C.ar    1  UNL1        0.1019
     25 N          66.1042   93.0523   11.4451 N.ar    1  UNL1       -0.2390
     26 C          64.8393   92.4150   11.9390 C.ar    1  UNL1        0.1362
     27 C          64.7883   91.8159   13.3132 C.ar    1  UNL1        0.1645
     28 C          66.0022   91.8541   14.1935 C.ar    1  UNL1        0.0435
     29 C          68.3299   92.7418   16.0571 C.3     1  UNL1        0.0773
     30 C          68.4810   92.5294   14.5799 C.2     1  UNL1        0.1751
     31 O          69.8461   92.3552   13.9831 O.2     1  UNL1       -0.2913
@<TRIPOS>BOND
     1    29    30    1
     2    30    31    2
     3    30    23    1
     4    23    24   ar
     5    24    25   ar
     6    25    26   ar
     7    26    27   ar
     8    27    22    1
     9    22     1    1
    10     1     2   ar
    11     2     3    1
    12     2     4   ar
    13     4     5   ar
    14     5     9    1
    15     9    11    1
    16    11    12    2
    17    11    13    2
    18    11    14    1
    19    14    15   ar
    20    15    16   ar
    21    16    17   ar
    22    17    18    1
    23    17    19   ar
    24    19    20   ar
    25    20    21    1
    26     5     6   ar
    27     6     7   ar
    28     7     8    1
    29    27    28   ar
    30    28    23   ar
    31     7     1   ar
    32    20    14   ar
    33     9    10    1
@<TRIPOS>MOLECULE
*****
 31 33 0 0 0
SMALL
GASTEIGER

@<TRIPOS>ATOM
      1 C          63.9212   90.3274   13.1715 C.ar    1  UNL1        0.1663
      2 C          64.3977   90.0382   14.5641 C.ar    1  UNL1        0.0942
      3 CL         64.9028   91.1534   15.4307 Cl      1  UNL1       -0.0790
      4 C          64.3691   88.6336   15.0900 C.ar    1  UNL1        0.0304
      5 C          63.8640   87.5184   14.2234 C.ar    1  UNL1        0.0667
      6 C          63.3875   87.8076   12.8308 C.ar    1  UNL1        0.0304
      7 C          63.4161   89.2121   12.3048 C.ar    1  UNL1        0.0942
      8 CL         62.9396   89.5013   10.9123 Cl      1  UNL1       -0.0790
      9 N          63.8354   86.1140   14.7493 N.pl3   1  UNL1       -0.2149
     10 H          63.9153   85.9488   15.7166 H       1  UNL1        0.1737
     11 S          63.6851   84.9611   13.8016 S.O2    1  UNL1        0.0744
     12 O          62.2153   85.2409   13.6944 O.2     1  UNL1       -0.1499
     13 O          65.1548   84.6813   13.9088 O.2     1  UNL1       -0.1499
     14 C          63.5347   83.8082   12.8538 C.ar    1  UNL1        0.1357
     15 C          64.0478   83.9205   11.4488 C.ar    1  UNL1        0.0219
     16 C          63.8974   82.7676   10.5011 C.ar    1  UNL1        0.0128
     17 C          63.2339   81.5024   10.9583 C.ar    1  UNL1        0.0586
     18 CL         63.0836   80.3495   10.0106 Cl      1  UNL1       -0.0822
     19 C          62.7208   81.3901   12.3634 C.ar    1  UNL1        0.0241
     20 C          62.8712   82.5430   13.3111 C.ar    1  UNL1        0.0773
     21 CL         62.3581   82.4307   14.7162 Cl      1  UNL1       -0.0808
     22 O          63.9498   91.7318   12.6456 O.3     1  UNL1       -0.4502
     23 C          66.3749   93.9294   10.4006 C.ar    1  UNL1        0.0569
     24 C          67.7090   93.3617   10.7849 C.ar    1  UNL1        0.1019
     25 N          67.7901   92.2507   11.7895 N.ar    1  UNL1       -0.2390
     26 C          66.5371   91.7074   12.4097 C.ar    1  UNL1        0.1362
     27 C          65.2030   92.2751   12.0253 C.ar    1  UNL1        0.1645
     28 C          65.1219   93.3861   11.0208 C.ar    1  UNL1        0.0435
     29 C          65.5029   96.2764    9.7069 C.3     1  UNL1        0.0773
     30 C          66.2938   95.0404    9.3960 C.2     1  UNL1        0.1751
     31 O          67.0036   94.9153    8.0806 O.2     1  UNL1       -0.2913
@<TRIPOS>BOND
     1    29    30    1
     2    30    31    2
     3    30    23    1
     4    23    24   ar
     5    24    25   ar
     6    25    26   ar
     7    26    27   ar
     8    27    22    1
     9    22     1    1
    10     1     2   ar
    11     2     3    1
    12     2     4   ar
    13     4     5   ar
    14     5     9    1
    15     9    11    1
    16    11    12    2
    17    11    13    2
    18    11    14    1
    19    14    15   ar
    20    15    16   ar
    21    16    17   ar
    22    17    18    1
    23    17    19   ar
    24    19    20   ar
    25    20    21    1
    26     5     6   ar
    27     6     7   ar
    28     7     8    1
    29    27    28   ar
    30    28    23   ar
    31     7     1   ar
    32    20    14   ar
    33     9    10    1
@<TRIPOS>MOLECULE
*****
 31 33 0 0 0
SMALL
GASTEIGER

@<TRIPOS>ATOM
      1 C          63.4869   89.4672   14.5765 C.ar    1  UNL1        0.1663
      2 C          63.4907   88.9519   15.9852 C.ar    1  UNL1        0.0942
      3 CL         63.3716   89.9088   17.1341 Cl      1  UNL1       -0.0790
      4 C          63.6137   87.4797   16.2450 C.ar    1  UNL1        0.0304
      5 C          63.7329   86.5227   15.0961 C.ar    1  UNL1        0.0667
      6 C          63.7291   87.0380   13.6873 C.ar    1  UNL1        0.0304
      7 C          63.6061   88.5102   13.4275 C.ar    1  UNL1        0.0942
      8 CL         63.6023   89.0254   12.0188 Cl      1  UNL1       -0.0790
      9 N          63.8559   85.0506   15.3559 N.pl3   1  UNL1       -0.2149
     10 H          64.0468   84.7255   16.2653 H       1  UNL1        0.1737
     11 S          63.6880   84.0737   14.2300 S.O2    1  UNL1        0.0744
     12 O          65.1260   83.6692   14.3666 O.2     1  UNL1       -0.1499
     13 O          62.2501   84.4782   14.0934 O.2     1  UNL1       -0.1499
     14 C          63.5202   83.0968   13.1042 C.ar    1  UNL1        0.1357
     15 C          64.1187   83.3908   11.7606 C.ar    1  UNL1        0.0219
     16 C          63.9508   82.4140   10.6347 C.ar    1  UNL1        0.0128
     17 C          63.1845   81.1430   10.8525 C.ar    1  UNL1        0.0586
     18 CL         63.0167   80.1662    9.7266 Cl      1  UNL1       -0.0822
     19 C          62.5860   80.8490   12.1961 C.ar    1  UNL1        0.0241
     20 C          62.7538   81.8258   13.3220 C.ar    1  UNL1        0.0773
     21 CL         62.1553   81.5318   14.6656 Cl      1  UNL1       -0.0808
     22 O          63.3639   90.9393   14.3167 O.3     1  UNL1       -0.4502
     23 C          66.1633   92.9855   12.3862 C.ar    1  UNL1        0.0569
     24 C          67.0475   93.3999   13.5248 C.ar    1  UNL1        0.1019
     25 N          66.7038   92.9941   14.9274 N.ar    1  UNL1       -0.2390
     26 C          65.4760   92.1740   15.1913 C.ar    1  UNL1        0.1362
     27 C          64.5918   91.7595   14.0527 C.ar    1  UNL1        0.1645
     28 C          64.9355   92.1653   12.6501 C.ar    1  UNL1        0.0435
     29 C          67.5474   92.6305   10.2164 C.3     1  UNL1        0.0773
     30 C          66.5069   93.3912   10.9836 C.2     1  UNL1        0.1751
     31 O          65.8101   94.5577   10.3482 O.2     1  UNL1       -0.2913
@<TRIPOS>BOND
     1    29    30    1
     2    30    31    2
     3    30    23    1
     4    23    24   ar
     5    24    25   ar
     6    25    26   ar
     7    26    27   ar
     8    27    22    1
     9    22     1    1
    10     1     2   ar
    11     2     3    1
    12     2     4   ar
    13     4     5   ar
    14     5     9    1
    15     9    11    1
    16    11    12    2
    17    11    13    2
    18    11    14    1
    19    14    15   ar
    20    15    16   ar
    21    16    17   ar
    22    17    18    1
    23    17    19   ar
    24    19    20   ar
    25    20    21    1
    26     5     6   ar
    27     6     7   ar
    28     7     8    1
    29    27    28   ar
    30    28    23   ar
    31     7     1   ar
    32    20    14   ar
    33     9    10    1
@<TRIPOS>MOLECULE
*****
 31 33 0 0 0
SMALL
GASTEIGER

@<TRIPOS>ATOM
      1 C          63.5745   89.7857   14.3715 C.ar    1  UNL1        0.1663
      2 C          63.5973   88.6764   13.3621 C.ar    1  UNL1        0.0942
      3 CL         63.6148   88.9961   11.8967 Cl      1  UNL1       -0.0790
      4 C          63.6027   87.2474   13.8181 C.ar    1  UNL1        0.0304
      5 C          63.5853   86.9277   15.2835 C.ar    1  UNL1        0.0667
      6 C          63.5625   88.0370   16.2930 C.ar    1  UNL1        0.0304
      7 C          63.5571   89.4660   15.8370 C.ar    1  UNL1        0.0942
      8 CL         63.5343   90.5753   16.8464 Cl      1  UNL1       -0.0790
      9 N          63.5906   85.4988   15.7395 N.pl3   1  UNL1       -0.2149
     10 H          63.6999   85.2873   16.6948 H       1  UNL1        0.1737
     11 S          63.4296   84.3919   14.7400 S.O2    1  UNL1        0.0744
     12 O          64.9189   84.3254   14.5738 O.2     1  UNL1       -0.1499
     13 O          61.9403   84.4585   14.9063 O.2     1  UNL1       -0.1499
     14 C          63.2685   83.2851   13.7405 C.ar    1  UNL1        0.1357
     15 C          63.3623   81.8551   14.1834 C.ar    1  UNL1        0.0219
     16 C          63.2013   80.7483   13.1839 C.ar    1  UNL1        0.0128
     17 C          62.9464   81.0715   11.7415 C.ar    1  UNL1        0.0586
     18 CL         62.7853   79.9646   10.7420 Cl      1  UNL1       -0.0822
     19 C          62.8526   82.5016   11.2986 C.ar    1  UNL1        0.0241
     20 C          63.0136   83.6084   12.2981 C.ar    1  UNL1        0.0773
     21 CL         62.9198   85.0384   11.8552 Cl      1  UNL1       -0.0808
     22 O          63.5692   91.2147   13.9155 O.3     1  UNL1       -0.4502
     23 C          66.5606   92.8052   11.8487 C.ar    1  UNL1        0.0569
     24 C          67.4479   93.2857   12.9585 C.ar    1  UNL1        0.1019
     25 N          67.0424   93.0759   14.3873 N.ar    1  UNL1       -0.2390
     26 C          65.7495   92.3856   14.7063 C.ar    1  UNL1        0.1362
     27 C          64.8622   91.9051   13.5965 C.ar    1  UNL1        0.1645
     28 C          65.2677   92.1149   12.1677 C.ar    1  UNL1        0.0435
     29 C          68.0079   92.1325    9.7986 C.3     1  UNL1        0.0773
     30 C          66.9662   93.0150   10.4199 C.2     1  UNL1        0.1751
     31 O          66.3301   94.1073    9.6124 O.2     1  UNL1       -0.2913
@<TRIPOS>BOND
     1    29    30    1
     2    30    31    2
     3    30    23    1
     4    23    24   ar
     5    24    25   ar
     6    25    26   ar
     7    26    27   ar
     8    27    22    1
     9    22     1    1
    10     1     2   ar
    11     2     3    1
    12     2     4   ar
    13     4     5   ar
    14     5     9    1
    15     9    11    1
    16    11    12    2
    17    11    13    2
    18    11    14    1
    19    14    15   ar
    20    15    16   ar
    21    16    17   ar
    22    17    18    1
    23    17    19   ar
    24    19    20   ar
    25    20    21    1
    26     5     6   ar
    27     6     7   ar
    28     7     8    1
    29    27    28   ar
    30    28    23   ar
    31     7     1   ar
    32    20    14   ar
    33     9    10    1
@<TRIPOS>MOLECULE
*****
 31 33 0 0 0
SMALL
GASTEIGER

@<TRIPOS>ATOM
      1 C          63.5291   90.4222   11.9529 C.ar    1  UNL1        0.1663
      2 C          62.8831   90.2848   10.6061 C.ar    1  UNL1        0.0942
      3 CL         62.7941   91.4711    9.6925 Cl      1  UNL1       -0.0790
      4 C          62.3262   88.9611   10.1730 C.ar    1  UNL1        0.0304
      5 C          62.4152   87.7748   11.0866 C.ar    1  UNL1        0.0667
      6 C          63.0612   87.9121   12.4334 C.ar    1  UNL1        0.0304
      7 C          63.6181   89.2358   12.8665 C.ar    1  UNL1        0.0942
      8 CL         64.2641   89.3731   14.2133 Cl      1  UNL1       -0.0790
      9 N          61.8582   86.4511   10.6534 N.pl3   1  UNL1       -0.2149
     10 H          61.2057   86.4087    9.9174 H       1  UNL1        0.1737
     11 S          62.2954   85.1920   11.3415 S.O2    1  UNL1        0.0744
     12 O          63.1718   84.8567   10.1712 O.2     1  UNL1       -0.1499
     13 O          61.4191   85.5274   12.5118 O.2     1  UNL1       -0.1499
     14 C          62.7326   83.9330   12.0297 C.ar    1  UNL1        0.1357
     15 C          62.3358   82.5977   11.4735 C.ar    1  UNL1        0.0219
     16 C          62.7730   81.3386   12.1616 C.ar    1  UNL1        0.0128
     17 C          63.6070   81.4148   13.4060 C.ar    1  UNL1        0.0586
     18 CL         64.0442   80.1557   14.0941 Cl      1  UNL1       -0.0822
     19 C          64.0040   82.7501   13.9623 C.ar    1  UNL1        0.0241
     20 C          63.5668   84.0092   13.2741 C.ar    1  UNL1        0.0773
     21 CL         63.9636   85.3445   13.8303 Cl      1  UNL1       -0.0808
     22 O          64.0861   91.7458   12.3861 O.3     1  UNL1       -0.4502
     23 C          67.4406   92.7919   10.5414 C.ar    1  UNL1        0.0569
     24 C          68.4242   92.7044   11.6705 C.ar    1  UNL1        0.1019
     25 N          67.9617   92.2975   13.0382 N.ar    1  UNL1       -0.2390
     26 C          66.5157   91.9779   13.2767 C.ar    1  UNL1        0.1362
     27 C          65.5322   92.0654   12.1476 C.ar    1  UNL1        0.1645
     28 C          65.9946   92.4723   10.7799 C.ar    1  UNL1        0.0435
     29 C          67.6119   94.5789    8.6633 C.3     1  UNL1        0.0773
     30 C          67.9031   93.1988    9.1737 C.2     1  UNL1        0.1751
     31 O          68.6567   92.2257    8.3164 O.2     1  UNL1       -0.2913
@<TRIPOS>BOND
     1    29    30    1
     2    30    31    2
     3    30    23    1
     4    23    24   ar
     5    24    25   ar
     6    25    26   ar
     7    26    27   ar
     8    27    22    1
     9    22     1    1
    10     1     2   ar
    11     2     3    1
    12     2     4   ar
    13     4     5   ar
    14     5     9    1
    15     9    11    1
    16    11    12    2
    17    11    13    2
    18    11    14    1
    19    14    15   ar
    20    15    16   ar
    21    16    17   ar
    22    17    18    1
    23    17    19   ar
    24    19    20   ar
    25    20    21    1
    26     5     6   ar
    27     6     7   ar
    28     7     8    1
    29    27    28   ar
    30    28    23   ar
    31     7     1   ar
    32    20    14   ar
    33     9    10    1
@<TRIPOS>MOLECULE
*****
 31 33 0 0 0
SMALL
GASTEIGER

@<TRIPOS>ATOM
      1 C          63.3238   88.4985   15.0007 C.ar    1  UNL1        0.1663
      2 C          63.5886   87.7111   13.7518 C.ar    1  UNL1        0.0942
      3 CL         63.5652   88.3931   12.4160 Cl      1  UNL1       -0.0790
      4 C          63.8768   86.2415   13.8387 C.ar    1  UNL1        0.0304
      5 C          63.9002   85.5595   15.1744 C.ar    1  UNL1        0.0667
      6 C          63.6354   86.3470   16.4233 C.ar    1  UNL1        0.0304
      7 C          63.3472   87.8165   16.3365 C.ar    1  UNL1        0.0942
      8 CL         63.0825   88.6039   17.5854 Cl      1  UNL1       -0.0790
      9 N          64.1883   84.0901   15.2613 N.pl3   1  UNL1       -0.2149
     10 H          64.5695   83.7111   16.0861 H       1  UNL1        0.1737
     11 S          63.8958   83.1980   14.0914 S.O2    1  UNL1        0.0744
     12 O          62.4352   83.2311   14.4314 O.2     1  UNL1       -0.1499
     13 O          65.3563   83.1649   13.7514 O.2     1  UNL1       -0.1499
     14 C          63.6032   82.3059   12.9215 C.ar    1  UNL1        0.1357
     15 C          63.8821   82.7823   11.5268 C.ar    1  UNL1        0.0219
     16 C          63.5896   81.8902   10.3570 C.ar    1  UNL1        0.0128
     17 C          63.0181   80.5217   10.5818 C.ar    1  UNL1        0.0586
     18 CL         62.7255   79.6296    9.4119 Cl      1  UNL1       -0.0822
     19 C          62.7391   80.0453   11.9765 C.ar    1  UNL1        0.0241
     20 C          63.0317   80.9373   13.1464 C.ar    1  UNL1        0.0773
     21 CL         62.7527   80.4609   14.5411 Cl      1  UNL1       -0.0808
     22 O          63.0357   89.9680   14.9139 O.3     1  UNL1       -0.4502
     23 C          66.2129   92.2069   14.1122 C.ar    1  UNL1        0.0569
     24 C          66.3714   92.9480   15.4066 C.ar    1  UNL1        0.1019
     25 N          65.4179   92.6958   16.5368 N.ar    1  UNL1       -0.2390
     26 C          64.3060   91.7025   16.3726 C.ar    1  UNL1        0.1362
     27 C          64.1476   90.9614   15.0782 C.ar    1  UNL1        0.1645
     28 C          65.1010   91.2136   13.9480 C.ar    1  UNL1        0.0435
     29 C          68.4391   91.6712   12.8845 C.3     1  UNL1        0.0773
     30 C          67.1664   92.4590   12.9820 C.2     1  UNL1        0.1751
     31 O          66.8471   93.4990   11.9493 O.2     1  UNL1       -0.2913
@<TRIPOS>BOND
     1    29    30    1
     2    30    31    2
     3    30    23    1
     4    23    24   ar
     5    24    25   ar
     6    25    26   ar
     7    26    27   ar
     8    27    22    1
     9    22     1    1
    10     1     2   ar
    11     2     3    1
    12     2     4   ar
    13     4     5   ar
    14     5     9    1
    15     9    11    1
    16    11    12    2
    17    11    13    2
    18    11    14    1
    19    14    15   ar
    20    15    16   ar
    21    16    17   ar
    22    17    18    1
    23    17    19   ar
    24    19    20   ar
    25    20    21    1
    26     5     6   ar
    27     6     7   ar
    28     7     8    1
    29    27    28   ar
    30    28    23   ar
    31     7     1   ar
    32    20    14   ar
    33     9    10    1
