@<TRIPOS>MOLECULE
*****
 32 36 0 0 0
SMALL
GASTEIGER

@<TRIPOS>ATOM
      1 C          63.9557   85.6542   16.0192 C.3     1  UNL1        0.0730
      2 N          63.5067   84.6995   14.9530 N.3     1  UNL1       -0.2724
      3 C          63.1144   83.2667   15.1607 C.3     1  UNL1        0.0724
      4 C          62.7364   82.6916   13.8279 C.3     1  UNL1        0.0214
      5 C          62.4269   82.4035   12.3887 C.3     1  UNL1        0.0072
      6 C          62.8951   83.7690   12.7964 C.3     1  UNL1        0.0350
      7 C          63.3712   85.0099   13.4917 C.3     1  UNL1        0.0761
      8 C          62.8575   84.3649   11.4204 C.ar    1  UNL1       -0.0215
      9 C          63.5965   83.7024   10.2957 C.ar    1  UNL1       -0.0043
     10 C          63.5589   84.2983    8.9196 C.ar    1  UNL1       -0.0004
     11 C          62.7823   85.5568    8.6682 C.ar    1  UNL1        0.0038
     12 C          62.0432   86.2193    9.7930 C.ar    1  UNL1        0.0711
     13 C          62.0808   85.6234   11.1690 C.ar    1  UNL1       -0.0004
     14 C          61.2665   87.4777    9.5417 C.3     1  UNL1        0.4186
     15 F          60.4899   88.7361    9.2903 F       1  UNL1       -0.1659
     16 F          60.0070   86.6739    9.4094 F       1  UNL1       -0.1659
     17 F          62.5261   88.2815    9.6740 F       1  UNL1       -0.1659
     18 C          62.9613   86.2112   16.9943 C.3     1  UNL1        0.0294
     19 C          63.0455   87.6493   17.4125 C.3     1  UNL1        0.0666
     20 S          62.4420   88.7178   16.5499 S.3     1  UNL1       -0.0756
     21 C          64.7344   91.2613   14.7222 C.ar    1  UNL1        0.2029
     22 N          64.4262   92.0059   15.9874 N.ar    1  UNL1       -0.1250
     23 N          63.5299   91.1438   16.8259 N.ar    1  UNL1       -0.1220
     24 C          63.2843   89.8663   16.0791 C.ar    1  UNL1        0.1933
     25 N          64.0287   89.9390   14.7790 N.ar    1  UNL1       -0.2860
     26 C          64.0616   88.8759   13.7212 C.3     1  UNL1        0.1341
     27 C          67.9307   91.8975   14.8933 C.3     1  UNL1        0.0556
     28 C          67.0661   92.0452   13.6764 C.ar    1  UNL1        0.1001
     29 N          67.5190   92.5114   12.3245 N.ar    1  UNL1       -0.2085
     30 C          66.3298   92.5071   11.4104 C.ar    1  UNL1        0.2849
     31 O          65.1420   92.0383   12.1972 O.2     1  UNL1       -0.4283
     32 C          65.5971   91.7529   13.5978 C.ar    1  UNL1        0.1964
@<TRIPOS>BOND
     1    27    28    1
     2    28    29   ar
     3    29    30   ar
     4    30    31   ar
     5    31    32   ar
     6    32    21    1
     7    21    22   ar
     8    22    23   ar
     9    23    24   ar
    10    24    20    1
    11    20    19    1
    12    19    18    1
    13    18     1    1
    14     1     2    1
    15     2     3    1
    16     3     4    1
    17     4     5    1
    18     5     6    1
    19     6     8    1
    20     8     9   ar
    21     9    10   ar
    22    10    11   ar
    23    11    12   ar
    24    12    14    1
    25    14    15    1
    26    14    16    1
    27    14    17    1
    28    12    13   ar
    29     6     7    1
    30    24    25   ar
    31    25    26    1
    32    32    28   ar
    33    25    21   ar
    34     7     2    1
    35     6     4    1
    36    13     8   ar
@<TRIPOS>MOLECULE
*****
 32 36 0 0 0
SMALL
GASTEIGER

@<TRIPOS>ATOM
      1 C          64.0973   86.7970   15.2707 C.3     1  UNL1        0.0730
      2 N          63.6535   85.6718   14.3836 N.3     1  UNL1       -0.2724
      3 C          63.4338   84.2496   14.8067 C.3     1  UNL1        0.0724
      4 C          62.9959   83.4700   13.6023 C.3     1  UNL1        0.0214
      5 C          62.5861   82.9658   12.2504 C.3     1  UNL1        0.0072
      6 C          62.9450   84.4104   12.4348 C.3     1  UNL1        0.0350
      7 C          63.3514   85.7712   12.9177 C.3     1  UNL1        0.0761
      8 C          62.7179   84.8119   11.0075 C.ar    1  UNL1       -0.0215
      9 C          63.5031   84.1566    9.9102 C.ar    1  UNL1       -0.0043
     10 C          63.2761   84.5581    8.4828 C.ar    1  UNL1       -0.0004
     11 C          62.2639   85.6147    8.1528 C.ar    1  UNL1        0.0038
     12 C          61.4787   86.2700    9.2502 C.ar    1  UNL1        0.0711
     13 C          61.7057   85.8685   10.6775 C.ar    1  UNL1       -0.0004
     14 C          60.4664   87.3266    8.9202 C.3     1  UNL1        0.4186
     15 F          59.4543   88.3832    8.5903 F       1  UNL1       -0.1659
     16 F          59.5118   86.2670    8.4554 F       1  UNL1       -0.1659
     17 F          61.4210   88.3862    9.3850 F       1  UNL1       -0.1659
     18 C          64.5138   88.1065   14.6694 C.3     1  UNL1        0.0294
     19 C          63.6445   89.3178   14.8341 C.3     1  UNL1        0.0666
     20 S          63.3745   90.2124   13.6606 S.3     1  UNL1       -0.0756
     21 C          65.5900   92.9917   12.1010 C.ar    1  UNL1        0.2029
     22 N          65.9904   93.0774   13.5440 N.ar    1  UNL1       -0.1250
     23 N          65.2093   92.0468   14.3039 N.ar    1  UNL1       -0.1220
     24 C          64.3260   91.3240   13.3305 C.ar    1  UNL1        0.1933
     25 N          64.5613   91.9080   11.9691 N.ar    1  UNL1       -0.2860
     26 C          63.8864   91.4829   10.6987 C.3     1  UNL1        0.1341
     27 C          67.9307   92.1386    9.9932 C.3     1  UNL1        0.0556
     28 C          67.2002   93.4485   10.0170 C.ar    1  UNL1        0.1001
     29 N          67.4175   94.5963    9.0760 N.ar    1  UNL1       -0.2085
     30 C          66.4758   95.6977    9.4633 C.ar    1  UNL1        0.2849
     31 O          65.6767   95.2308   10.6435 O.2     1  UNL1       -0.4283
     32 C          66.1244   93.8406   10.9857 C.ar    1  UNL1        0.1964
@<TRIPOS>BOND
     1    27    28    1
     2    28    29   ar
     3    29    30   ar
     4    30    31   ar
     5    31    32   ar
     6    32    21    1
     7    21    22   ar
     8    22    23   ar
     9    23    24   ar
    10    24    20    1
    11    20    19    1
    12    19    18    1
    13    18     1    1
    14     1     2    1
    15     2     3    1
    16     3     4    1
    17     4     5    1
    18     5     6    1
    19     6     8    1
    20     8     9   ar
    21     9    10   ar
    22    10    11   ar
    23    11    12   ar
    24    12    14    1
    25    14    15    1
    26    14    16    1
    27    14    17    1
    28    12    13   ar
    29     6     7    1
    30    24    25   ar
    31    25    26    1
    32    32    28   ar
    33    25    21   ar
    34     7     2    1
    35     6     4    1
    36    13     8   ar
@<TRIPOS>MOLECULE
*****
 32 36 0 0 0
SMALL
GASTEIGER

@<TRIPOS>ATOM
      1 C          59.7157   88.5134   11.4413 C.3     1  UNL1        0.0730
      2 N          60.5033   87.6159   10.5335 N.3     1  UNL1       -0.2724
      3 C          60.5244   87.6767    9.0348 C.3     1  UNL1        0.0724
      4 C          61.4422   86.5983    8.5400 C.3     1  UNL1        0.0214
      5 C          62.3972   85.4574    8.3503 C.3     1  UNL1        0.0072
      6 C          61.9882   85.8710    9.7328 C.3     1  UNL1        0.0350
      7 C          61.4079   86.4999   10.9648 C.3     1  UNL1        0.0761
      8 C          62.8074   84.8415   10.4533 C.ar    1  UNL1       -0.0215
      9 C          63.6066   83.8395    9.6741 C.ar    1  UNL1       -0.0043
     10 C          64.4259   82.8099   10.3945 C.ar    1  UNL1       -0.0004
     11 C          64.4458   82.7824   11.8942 C.ar    1  UNL1        0.0038
     12 C          63.6465   83.7845   12.6733 C.ar    1  UNL1        0.0711
     13 C          62.8273   84.8140   11.9529 C.ar    1  UNL1       -0.0004
     14 C          63.6665   83.7571   14.1730 C.3     1  UNL1        0.4186
     15 F          63.6864   83.7296   15.6725 F       1  UNL1       -0.1659
     16 F          65.1387   84.0441   14.1587 F       1  UNL1       -0.1659
     17 F          62.1942   83.4700   14.1873 F       1  UNL1       -0.1659
     18 C          60.3808   89.6870   12.0973 C.3     1  UNL1        0.0294
     19 C          61.8041   90.0245   11.7652 C.3     1  UNL1        0.0666
     20 S          62.8432   90.0404   12.8470 S.3     1  UNL1       -0.0756
     21 C          65.4521   92.8183   12.1109 C.ar    1  UNL1        0.2029
     22 N          65.6488   92.6190   13.5845 N.ar    1  UNL1       -0.1250
     23 N          64.6955   91.5542   14.0396 N.ar    1  UNL1       -0.1220
     24 C          63.9095   91.0953   12.8473 C.ar    1  UNL1        0.1933
     25 N          64.3772   91.8766   11.6553 N.ar    1  UNL1       -0.2860
     26 C          63.8605   91.7401   10.2537 C.3     1  UNL1        0.1341
     27 C          67.8489   92.0764   10.0241 C.3     1  UNL1        0.0556
     28 C          67.3008   93.4479   10.2858 C.ar    1  UNL1        0.1001
     29 N          67.7582   94.7192    9.6342 N.ar    1  UNL1       -0.2085
     30 C          66.9392   95.8460   10.1907 C.ar    1  UNL1        0.2849
     31 O          65.9757   95.2711   11.1861 O.2     1  UNL1       -0.4283
     32 C          66.1991   93.7890   11.2449 C.ar    1  UNL1        0.1964
@<TRIPOS>BOND
     1    27    28    1
     2    28    29   ar
     3    29    30   ar
     4    30    31   ar
     5    31    32   ar
     6    32    21    1
     7    21    22   ar
     8    22    23   ar
     9    23    24   ar
    10    24    20    1
    11    20    19    1
    12    19    18    1
    13    18     1    1
    14     1     2    1
    15     2     3    1
    16     3     4    1
    17     4     5    1
    18     5     6    1
    19     6     8    1
    20     8     9   ar
    21     9    10   ar
    22    10    11   ar
    23    11    12   ar
    24    12    14    1
    25    14    15    1
    26    14    16    1
    27    14    17    1
    28    12    13   ar
    29     6     7    1
    30    24    25   ar
    31    25    26    1
    32    32    28   ar
    33    25    21   ar
    34     7     2    1
    35     6     4    1
    36    13     8   ar
@<TRIPOS>MOLECULE
*****
 32 36 0 0 0
SMALL
GASTEIGER

@<TRIPOS>ATOM
      1 C          60.2738   87.5225    9.5312 C.3     1  UNL1        0.0730
      2 N          61.3005   86.4351    9.6462 N.3     1  UNL1       -0.2724
      3 C          62.2013   85.9532    8.5478 C.3     1  UNL1        0.0724
      4 C          63.0643   84.8589    9.1025 C.3     1  UNL1        0.0214
      5 C          63.7697   83.8199    9.9227 C.3     1  UNL1        0.0072
      6 C          62.6969   84.6644   10.5438 C.3     1  UNL1        0.0350
      7 C          61.6068   85.6385   10.8798 C.3     1  UNL1        0.0761
      8 C          62.7788   84.0444   11.9072 C.ar    1  UNL1       -0.0215
      9 C          62.5486   82.5719   12.0765 C.ar    1  UNL1       -0.0043
     10 C          62.6305   81.9518   13.4400 C.ar    1  UNL1       -0.0004
     11 C          62.9428   82.8043   14.6340 C.ar    1  UNL1        0.0038
     12 C          63.1730   84.2769   14.4646 C.ar    1  UNL1        0.0711
     13 C          63.0911   84.8969   13.1012 C.ar    1  UNL1       -0.0004
     14 C          63.4853   85.1294   15.6587 C.3     1  UNL1        0.4186
     15 F          63.7975   85.9819   16.8527 F       1  UNL1       -0.1659
     16 F          62.1297   84.8302   16.2268 F       1  UNL1       -0.1659
     17 F          64.8409   85.4286   15.0905 F       1  UNL1       -0.1659
     18 C          60.7064   88.9436    9.3232 C.3     1  UNL1        0.0294
     19 C          60.8391   89.8668   10.4980 C.3     1  UNL1        0.0666
     20 S          61.8864   89.6085   11.5404 S.3     1  UNL1       -0.0756
     21 C          64.9530   91.7498   12.5775 C.ar    1  UNL1        0.2029
     22 N          64.7944   92.1478   11.1400 N.ar    1  UNL1       -0.1250
     23 N          63.6264   91.3942   10.5766 N.ar    1  UNL1       -0.1220
     24 C          63.0630   90.5303   11.6658 C.ar    1  UNL1        0.1933
     25 N          63.8830   90.7501   12.9024 N.ar    1  UNL1       -0.2860
     26 C          63.6702   90.0867   14.2308 C.3     1  UNL1        0.1341
     27 C          68.1792   91.6833   12.0908 C.3     1  UNL1        0.0556
     28 C          67.4811   92.2310   13.3002 C.ar    1  UNL1        0.1001
     29 N          68.1434   92.8443   14.4982 N.ar    1  UNL1       -0.2085
     30 C          67.0697   93.2539   15.4623 C.ar    1  UNL1        0.2849
     31 O          65.7440   92.8938   14.8602 O.2     1  UNL1       -0.4283
     32 C          65.9983   92.2616   13.5239 C.ar    1  UNL1        0.1964
@<TRIPOS>BOND
     1    27    28    1
     2    28    29   ar
     3    29    30   ar
     4    30    31   ar
     5    31    32   ar
     6    32    21    1
     7    21    22   ar
     8    22    23   ar
     9    23    24   ar
    10    24    20    1
    11    20    19    1
    12    19    18    1
    13    18     1    1
    14     1     2    1
    15     2     3    1
    16     3     4    1
    17     4     5    1
    18     5     6    1
    19     6     8    1
    20     8     9   ar
    21     9    10   ar
    22    10    11   ar
    23    11    12   ar
    24    12    14    1
    25    14    15    1
    26    14    16    1
    27    14    17    1
    28    12    13   ar
    29     6     7    1
    30    24    25   ar
    31    25    26    1
    32    32    28   ar
    33    25    21   ar
    34     7     2    1
    35     6     4    1
    36    13     8   ar
@<TRIPOS>MOLECULE
*****
 32 36 0 0 0
SMALL
GASTEIGER

@<TRIPOS>ATOM
      1 C          60.3844   87.4568    9.4408 C.3     1  UNL1        0.0730
      2 N          61.3988   86.3636    9.6020 N.3     1  UNL1       -0.2724
      3 C          62.3217   85.8528    8.5355 C.3     1  UNL1        0.0724
      4 C          63.1617   84.7628    9.1324 C.3     1  UNL1        0.0214
      5 C          63.8383   83.7347    9.9897 C.3     1  UNL1        0.0072
      6 C          62.7580   84.5999   10.5678 C.3     1  UNL1        0.0350
      7 C          61.6686   85.5893   10.8581 C.3     1  UNL1        0.0761
      8 C          62.8019   84.0065   11.9447 C.ar    1  UNL1       -0.0215
      9 C          62.5378   82.5428   12.1393 C.ar    1  UNL1       -0.0043
     10 C          62.5816   81.9493   13.5163 C.ar    1  UNL1       -0.0004
     11 C          62.8896   82.8196   14.6986 C.ar    1  UNL1        0.0038
     12 C          63.1537   84.2833   14.5040 C.ar    1  UNL1        0.0711
     13 C          63.1099   84.8767   13.1271 C.ar    1  UNL1       -0.0004
     14 C          63.4617   85.1535   15.6863 C.3     1  UNL1        0.4186
     15 F          63.7697   86.0237   16.8685 F       1  UNL1       -0.1659
     16 F          64.7393   85.5898   15.0324 F       1  UNL1       -0.1659
     17 F          62.1841   84.7173   16.3402 F       1  UNL1       -0.1659
     18 C          60.7849   88.8877    9.6455 C.3     1  UNL1        0.0294
     19 C          62.1583   89.2173   10.1507 C.3     1  UNL1        0.0666
     20 S          62.4051   90.5163   10.8590 S.3     1  UNL1       -0.0756
     21 C          64.9028   91.0793   13.7762 C.ar    1  UNL1        0.2029
     22 N          63.9749   90.0672   14.3802 N.ar    1  UNL1       -0.1250
     23 N          62.9264   89.7332   13.3610 N.ar    1  UNL1       -0.1220
     24 C          63.2062   90.5387   12.1270 C.ar    1  UNL1        0.1933
     25 N          64.4277   91.3707   12.3837 N.ar    1  UNL1       -0.2860
     26 C          65.0625   92.3263   11.4173 C.3     1  UNL1        0.1341
     27 C          64.9409   92.4675   16.7294 C.3     1  UNL1        0.0556
     28 C          66.1137   92.3304   15.8043 C.ar    1  UNL1        0.1001
     29 N          67.5100   92.8073   16.0744 N.ar    1  UNL1       -0.2085
     30 C          68.3555   92.4639   14.8839 C.ar    1  UNL1        0.2849
     31 O          67.4817   91.7749   13.8781 O.2     1  UNL1       -0.4283
     32 C          66.0963   91.6923   14.4470 C.ar    1  UNL1        0.1964
@<TRIPOS>BOND
     1    27    28    1
     2    28    29   ar
     3    29    30   ar
     4    30    31   ar
     5    31    32   ar
     6    32    21    1
     7    21    22   ar
     8    22    23   ar
     9    23    24   ar
    10    24    20    1
    11    20    19    1
    12    19    18    1
    13    18     1    1
    14     1     2    1
    15     2     3    1
    16     3     4    1
    17     4     5    1
    18     5     6    1
    19     6     8    1
    20     8     9   ar
    21     9    10   ar
    22    10    11   ar
    23    11    12   ar
    24    12    14    1
    25    14    15    1
    26    14    16    1
    27    14    17    1
    28    12    13   ar
    29     6     7    1
    30    24    25   ar
    31    25    26    1
    32    32    28   ar
    33    25    21   ar
    34     7     2    1
    35     6     4    1
    36    13     8   ar
@<TRIPOS>MOLECULE
*****
 32 36 0 0 0
SMALL
GASTEIGER

@<TRIPOS>ATOM
      1 C          60.1151   87.9579    9.8173 C.3     1  UNL1        0.0730
      2 N          61.1264   86.8504    9.7955 N.3     1  UNL1       -0.2724
      3 C          61.9220   86.4062    8.6040 C.3     1  UNL1        0.0724
      4 C          62.8070   85.2738    9.0335 C.3     1  UNL1        0.0214
      5 C          63.5585   84.1868    9.7431 C.3     1  UNL1        0.0072
      6 C          62.5584   85.0181   10.4905 C.3     1  UNL1        0.0350
      7 C          61.5197   85.9925   10.9614 C.3     1  UNL1        0.0761
      8 C          62.7426   84.3340   11.8126 C.ar    1  UNL1       -0.0215
      9 C          63.1963   85.1200   13.0069 C.ar    1  UNL1       -0.0043
     10 C          63.3806   84.4360   14.3292 C.ar    1  UNL1       -0.0004
     11 C          63.1110   82.9659   14.4570 C.ar    1  UNL1        0.0038
     12 C          62.6572   82.1799   13.2627 C.ar    1  UNL1        0.0711
     13 C          62.4730   82.8640   11.9405 C.ar    1  UNL1       -0.0004
     14 C          62.3877   80.7099   13.3905 C.3     1  UNL1        0.4186
     15 F          62.1181   79.2399   13.5184 F       1  UNL1       -0.1659
     16 F          63.1531   80.4595   12.1251 F       1  UNL1       -0.1659
     17 F          61.6222   80.9603   14.6560 F       1  UNL1       -0.1659
     18 C          60.5336   89.3622    9.4967 C.3     1  UNL1        0.0294
     19 C          61.8923   89.8511    9.9030 C.3     1  UNL1        0.0666
     20 S          62.1470   90.2647   11.3222 S.3     1  UNL1       -0.0756
     21 C          65.2631   91.9615   12.8958 C.ar    1  UNL1        0.2029
     22 N          65.3114   92.5054   11.4987 N.ar    1  UNL1       -0.1250
     23 N          64.1500   91.9360   10.7393 N.ar    1  UNL1       -0.1220
     24 C          63.3839   91.0402   11.6669 C.ar    1  UNL1        0.1933
     25 N          64.0719   91.0560   12.9997 N.ar    1  UNL1       -0.2860
     26 C          63.6436   90.2990   14.2219 C.3     1  UNL1        0.1341
     27 C          68.5062   91.6349   12.7364 C.3     1  UNL1        0.0556
     28 C          67.7260   92.1191   13.9226 C.ar    1  UNL1        0.1001
     29 N          68.2996   92.5381   15.2437 N.ar    1  UNL1       -0.2085
     30 C          67.1634   92.9472   16.1335 C.ar    1  UNL1        0.2849
     31 O          65.8877   92.7810   15.3623 O.2     1  UNL1       -0.4283
     32 C          66.2354   92.2692   13.9959 C.ar    1  UNL1        0.1964
@<TRIPOS>BOND
     1    27    28    1
     2    28    29   ar
     3    29    30   ar
     4    30    31   ar
     5    31    32   ar
     6    32    21    1
     7    21    22   ar
     8    22    23   ar
     9    23    24   ar
    10    24    20    1
    11    20    19    1
    12    19    18    1
    13    18     1    1
    14     1     2    1
    15     2     3    1
    16     3     4    1
    17     4     5    1
    18     5     6    1
    19     6     8    1
    20     8     9   ar
    21     9    10   ar
    22    10    11   ar
    23    11    12   ar
    24    12    14    1
    25    14    15    1
    26    14    16    1
    27    14    17    1
    28    12    13   ar
    29     6     7    1
    30    24    25   ar
    31    25    26    1
    32    32    28   ar
    33    25    21   ar
    34     7     2    1
    35     6     4    1
    36    13     8   ar
@<TRIPOS>MOLECULE
*****
 32 36 0 0 0
SMALL
GASTEIGER

@<TRIPOS>ATOM
      1 C          64.4112   87.3769   14.9213 C.3     1  UNL1        0.0730
      2 N          63.9275   86.2988   13.9973 N.3     1  UNL1       -0.2724
      3 C          64.1331   84.8241   14.1789 C.3     1  UNL1        0.0724
      4 C          63.4859   84.1200   13.0232 C.3     1  UNL1        0.0214
      5 C          62.7642   83.7062   11.7751 C.3     1  UNL1        0.0072
      6 C          62.8803   85.1596   12.1274 C.3     1  UNL1        0.0350
      7 C          63.1532   86.5061   12.7294 C.3     1  UNL1        0.0761
      8 C          62.1303   85.6708   10.9332 C.ar    1  UNL1       -0.0215
      9 C          61.1096   86.7576   11.0975 C.ar    1  UNL1       -0.0043
     10 C          60.3595   87.2688    9.9032 C.ar    1  UNL1       -0.0004
     11 C          60.6303   86.6933    8.5447 C.ar    1  UNL1        0.0038
     12 C          61.6511   85.6064    8.3805 C.ar    1  UNL1        0.0711
     13 C          62.4011   85.0952    9.5747 C.ar    1  UNL1       -0.0004
     14 C          61.9218   85.0309    7.0220 C.3     1  UNL1        0.4186
     15 F          62.1925   84.4553    5.6637 F       1  UNL1       -0.1659
     16 F          63.3805   84.9281    7.3563 F       1  UNL1       -0.1659
     17 F          60.4631   85.1336    6.6878 F       1  UNL1       -0.1659
     18 C          64.4771   88.7981   14.4462 C.3     1  UNL1        0.0294
     19 C          63.6682   89.8573   15.1345 C.3     1  UNL1        0.0666
     20 S          64.2470   91.2251   15.3444 S.3     1  UNL1       -0.0756
     21 C          66.8450   92.3279   12.6799 C.ar    1  UNL1        0.2029
     22 N          67.6736   92.3748   13.9295 N.ar    1  UNL1       -0.1250
     23 N          66.8012   91.9674   15.0796 N.ar    1  UNL1       -0.1220
     24 C          65.4335   91.6687   14.5410 C.ar    1  UNL1        0.1933
     25 N          65.4607   91.8915   13.0578 N.ar    1  UNL1       -0.2860
     26 C          64.3060   91.7097   12.1178 C.3     1  UNL1        0.1341
     27 C          65.7535   94.7722   10.8136 C.3     1  UNL1        0.0556
     28 C          66.8163   93.7826   10.4377 C.ar    1  UNL1        0.1001
     29 N          67.5639   93.7430    9.1378 N.ar    1  UNL1       -0.2085
     30 C          68.5276   92.5949    9.1924 C.ar    1  UNL1        0.2849
     31 O          68.3757   91.9250   10.5258 O.2     1  UNL1       -0.4283
     32 C          67.3180   92.6592   11.2954 C.ar    1  UNL1        0.1964
@<TRIPOS>BOND
     1    27    28    1
     2    28    29   ar
     3    29    30   ar
     4    30    31   ar
     5    31    32   ar
     6    32    21    1
     7    21    22   ar
     8    22    23   ar
     9    23    24   ar
    10    24    20    1
    11    20    19    1
    12    19    18    1
    13    18     1    1
    14     1     2    1
    15     2     3    1
    16     3     4    1
    17     4     5    1
    18     5     6    1
    19     6     8    1
    20     8     9   ar
    21     9    10   ar
    22    10    11   ar
    23    11    12   ar
    24    12    14    1
    25    14    15    1
    26    14    16    1
    27    14    17    1
    28    12    13   ar
    29     6     7    1
    30    24    25   ar
    31    25    26    1
    32    32    28   ar
    33    25    21   ar
    34     7     2    1
    35     6     4    1
    36    13     8   ar
@<TRIPOS>MOLECULE
*****
 32 36 0 0 0
SMALL
GASTEIGER

@<TRIPOS>ATOM
      1 C          63.9059   87.5142   15.8032 C.3     1  UNL1        0.0730
      2 N          63.5418   86.1556   15.2820 N.3     1  UNL1       -0.2724
      3 C          63.0521   84.9989   16.1018 C.3     1  UNL1        0.0724
      4 C          62.8111   83.8436   15.1759 C.3     1  UNL1        0.0214
      5 C          62.6661   82.8884   14.0285 C.3     1  UNL1        0.0072
      6 C          63.1518   84.2863   13.7839 C.3     1  UNL1        0.0350
      7 C          63.6033   85.7152   13.8494 C.3     1  UNL1        0.0761
      8 C          63.3149   84.1382   12.3001 C.ar    1  UNL1       -0.0215
      9 C          64.2267   83.0831   11.7475 C.ar    1  UNL1       -0.0043
     10 C          64.3898   82.9350   10.2637 C.ar    1  UNL1       -0.0004
     11 C          63.6412   83.8419    9.3326 C.ar    1  UNL1        0.0038
     12 C          62.7293   84.8970    9.8853 C.ar    1  UNL1        0.0711
     13 C          62.5662   85.0452   11.3690 C.ar    1  UNL1       -0.0004
     14 C          61.9806   85.8040    8.9542 C.3     1  UNL1        0.4186
     15 F          61.2320   86.7109    8.0232 F       1  UNL1       -0.1659
     16 F          62.9665   85.4999    7.8653 F       1  UNL1       -0.1659
     17 F          60.9948   86.1081   10.0432 F       1  UNL1       -0.1659
     18 C          64.3146   88.5982   14.8504 C.3     1  UNL1        0.0294
     19 C          63.6071   89.9207   14.8708 C.3     1  UNL1        0.0666
     20 S          64.3451   91.1599   15.2832 S.3     1  UNL1       -0.0756
     21 C          66.9005   92.3469   12.6138 C.ar    1  UNL1        0.2029
     22 N          67.7345   92.4046   13.8593 N.ar    1  UNL1       -0.1250
     23 N          66.8787   91.9670   15.0108 N.ar    1  UNL1       -0.1220
     24 C          65.5159   91.6388   14.4771 C.ar    1  UNL1        0.1933
     25 N          65.5294   91.8736   12.9956 N.ar    1  UNL1       -0.2860
     26 C          64.3744   91.6707   12.0603 C.3     1  UNL1        0.1341
     27 C          65.7970   94.8286   10.8046 C.3     1  UNL1        0.0556
     28 C          66.8503   93.8411   10.3980 C.ar    1  UNL1        0.1001
     29 N          67.5813   93.8209    9.0883 N.ar    1  UNL1       -0.2085
     30 C          68.5403   92.6678    9.1105 C.ar    1  UNL1        0.2849
     31 O          68.4020   91.9753   10.4338 O.2     1  UNL1       -0.4283
     32 C          67.3575   92.7004   11.2295 C.ar    1  UNL1        0.1964
@<TRIPOS>BOND
     1    27    28    1
     2    28    29   ar
     3    29    30   ar
     4    30    31   ar
     5    31    32   ar
     6    32    21    1
     7    21    22   ar
     8    22    23   ar
     9    23    24   ar
    10    24    20    1
    11    20    19    1
    12    19    18    1
    13    18     1    1
    14     1     2    1
    15     2     3    1
    16     3     4    1
    17     4     5    1
    18     5     6    1
    19     6     8    1
    20     8     9   ar
    21     9    10   ar
    22    10    11   ar
    23    11    12   ar
    24    12    14    1
    25    14    15    1
    26    14    16    1
    27    14    17    1
    28    12    13   ar
    29     6     7    1
    30    24    25   ar
    31    25    26    1
    32    32    28   ar
    33    25    21   ar
    34     7     2    1
    35     6     4    1
    36    13     8   ar
@<TRIPOS>MOLECULE
*****
 32 36 0 0 0
SMALL
GASTEIGER

@<TRIPOS>ATOM
      1 C          63.8599   87.4102   15.5355 C.3     1  UNL1        0.0730
      2 N          63.3690   86.0073   15.3332 N.3     1  UNL1       -0.2724
      3 C          62.6418   85.1730   16.3456 C.3     1  UNL1        0.0724
      4 C          62.3426   83.8424   15.7210 C.3     1  UNL1        0.0214
      5 C          62.1887   82.6335   14.8465 C.3     1  UNL1        0.0072
      6 C          62.8849   83.8544   14.3225 C.3     1  UNL1        0.0350
      7 C          63.5193   85.1924   14.0828 C.3     1  UNL1        0.0761
      8 C          63.1807   83.2948   12.9627 C.ar    1  UNL1       -0.0215
      9 C          63.7919   84.1694   11.9084 C.ar    1  UNL1       -0.0043
     10 C          64.0877   83.6097   10.5485 C.ar    1  UNL1       -0.0004
     11 C          63.7722   82.1755   10.2428 C.ar    1  UNL1        0.0038
     12 C          63.1609   81.3009   11.2971 C.ar    1  UNL1        0.0711
     13 C          62.8652   81.8605   12.6570 C.ar    1  UNL1       -0.0004
     14 C          62.8454   79.8666   10.9915 C.3     1  UNL1        0.4186
     15 F          62.5300   78.4324   10.6859 F       1  UNL1       -0.1659
     16 F          62.5430   79.6243   12.4406 F       1  UNL1       -0.1659
     17 F          63.1479   80.1089    9.5424 F       1  UNL1       -0.1659
     18 C          64.5810   88.1196   14.4280 C.3     1  UNL1        0.0294
     19 C          63.8064   88.9010   13.4084 C.3     1  UNL1        0.0666
     20 S          63.4269   90.3256   13.6851 S.3     1  UNL1       -0.0756
     21 C          65.6303   93.0720   12.0519 C.ar    1  UNL1        0.2029
     22 N          66.0085   93.2177   13.4961 N.ar    1  UNL1       -0.1250
     23 N          65.2292   92.2067   14.2837 N.ar    1  UNL1       -0.1220
     24 C          64.3693   91.4361   13.3263 C.ar    1  UNL1        0.1933
     25 N          64.6172   91.9709   11.9470 N.ar    1  UNL1       -0.2860
     26 C          63.9663   91.4891   10.6843 C.3     1  UNL1        0.1341
     27 C          67.9637   92.1417    9.9687 C.3     1  UNL1        0.0556
     28 C          67.2429   93.4572    9.9552 C.ar    1  UNL1        0.1001
     29 N          67.4682   94.5759    8.9818 N.ar    1  UNL1       -0.2085
     30 C          66.5348   95.6949    9.3377 C.ar    1  UNL1        0.2849
     31 O          65.7328   95.2678   10.5310 O.2     1  UNL1       -0.4283
     32 C          66.1704   93.8848   10.9127 C.ar    1  UNL1        0.1964
@<TRIPOS>BOND
     1    27    28    1
     2    28    29   ar
     3    29    30   ar
     4    30    31   ar
     5    31    32   ar
     6    32    21    1
     7    21    22   ar
     8    22    23   ar
     9    23    24   ar
    10    24    20    1
    11    20    19    1
    12    19    18    1
    13    18     1    1
    14     1     2    1
    15     2     3    1
    16     3     4    1
    17     4     5    1
    18     5     6    1
    19     6     8    1
    20     8     9   ar
    21     9    10   ar
    22    10    11   ar
    23    11    12   ar
    24    12    14    1
    25    14    15    1
    26    14    16    1
    27    14    17    1
    28    12    13   ar
    29     6     7    1
    30    24    25   ar
    31    25    26    1
    32    32    28   ar
    33    25    21   ar
    34     7     2    1
    35     6     4    1
    36    13     8   ar
