@<TRIPOS>MOLECULE
*****
 28 30 0 0 0
SMALL
GASTEIGER

@<TRIPOS>ATOM
      1 C          63.3441   91.0555   12.6245 C.ar    1  UNL1        0.1190
      2 C          63.9707   91.6095   11.3794 C.ar    1  UNL1        0.0336
      3 C          65.3136   92.2744   11.4475 C.ar    1  UNL1        0.0783
      4 CL         65.9402   92.8285   10.2023 Cl      1  UNL1       -0.0806
      5 C          66.0298   92.3852   12.7608 C.ar    1  UNL1        0.1135
      6 N          65.4032   91.8312   14.0059 N.ar    1  UNL1       -0.2078
      7 C          64.0604   91.1663   13.9378 C.ar    1  UNL1        0.2446
      8 N          62.0012   90.3906   12.5564 N.pl3   1  UNL1       -0.2104
      9 H          61.3121   90.6031   13.2266 H       1  UNL1        0.1739
     10 O          62.6792   88.4376   12.0812 O.2     1  UNL1       -0.1499
     11 S          61.7082   89.4019   11.4671 S.O2    1  UNL1        0.0737
     12 O          60.7372   90.3662   10.8530 O.2     1  UNL1       -0.1499
     13 C          61.4152   88.4132   10.3777 C.ar    1  UNL1        0.1261
     14 C          60.1563   88.5367    9.5716 C.ar    1  UNL1        0.0211
     15 C          59.8632   87.5480    8.4822 C.ar    1  UNL1        0.0136
     16 C          60.8291   86.4359    8.1991 C.ar    1  UNL1        0.0683
     17 CL         60.5361   85.4471    7.1097 Cl      1  UNL1       -0.0814
     18 C          62.0880   86.3124    9.0053 C.ar    1  UNL1        0.0695
     19 CL         63.0539   85.2001    8.7221 Cl      1  UNL1       -0.0813
     20 C          62.3811   87.3010   10.0946 C.ar    1  UNL1        0.0324
     21 O          63.4337   90.6122   15.1829 O.3     1  UNL1       -0.4334
     22 C          63.5651   89.1527   15.5031 C.ar    1  UNL1        0.1672
     23 C          64.2638   88.2345   14.5445 C.ar    1  UNL1        0.1363
     24 N          64.3951   86.7750   14.8646 N.ar    1  UNL1       -0.2382
     25 C          63.8277   86.2336   16.1433 C.ar    1  UNL1        0.1104
     26 C          63.1291   87.1517   17.1018 C.ar    1  UNL1        0.0798
     27 CL         62.5617   86.6104   18.3805 Cl      1  UNL1       -0.0805
     28 C          62.9977   88.6113   16.7817 C.ar    1  UNL1        0.0521
@<TRIPOS>BOND
     1    10    11    2
     2    11    12    2
     3    11     8    1
     4     8     1    1
     5     1     2   ar
     6     2     3   ar
     7     3     4    1
     8     3     5   ar
     9     5     6   ar
    10     6     7   ar
    11     7    21    1
    12    21    22    1
    13    22    23   ar
    14    23    24   ar
    15    24    25   ar
    16    25    26   ar
    17    26    27    1
    18    26    28   ar
    19    11    13    1
    20    13    14   ar
    21    14    15   ar
    22    15    16   ar
    23    16    17    1
    24    16    18   ar
    25    18    19    1
    26    18    20   ar
    27     7     1   ar
    28    28    22   ar
    29    20    13   ar
    30     8     9    1
@<TRIPOS>MOLECULE
*****
 28 30 0 0 0
SMALL
GASTEIGER

@<TRIPOS>ATOM
      1 C          63.3715   90.8375   13.0413 C.ar    1  UNL1        0.1190
      2 C          63.9606   91.3906   11.7775 C.ar    1  UNL1        0.0336
      3 C          65.3183   92.0279   11.7992 C.ar    1  UNL1        0.0783
      4 CL         65.9074   92.5810   10.5354 Cl      1  UNL1       -0.0806
      5 C          66.0869   92.1121   13.0845 C.ar    1  UNL1        0.1135
      6 N          65.4978   91.5590   14.3483 N.ar    1  UNL1       -0.2078
      7 C          64.1401   90.9217   14.3266 C.ar    1  UNL1        0.2446
      8 N          62.0138   90.2002   13.0197 N.pl3   1  UNL1       -0.2104
      9 H          61.3797   90.3675   13.7540 H       1  UNL1        0.1739
     10 O          62.7313   88.3637   12.2371 O.2     1  UNL1       -0.1499
     11 S          61.6221   89.3079   11.8793 S.O2    1  UNL1        0.0737
     12 O          60.5129   90.2522   11.5215 O.2     1  UNL1       -0.1499
     13 C          61.2304   88.4157   10.7389 C.ar    1  UNL1        0.1261
     14 C          61.6219   86.9677   10.7508 C.ar    1  UNL1        0.0211
     15 C          61.2302   86.0755    9.6104 C.ar    1  UNL1        0.0136
     16 C          60.4470   86.6313    8.4581 C.ar    1  UNL1        0.0683
     17 CL         60.0553   85.7390    7.3177 Cl      1  UNL1       -0.0814
     18 C          60.0556   88.0792    8.4462 C.ar    1  UNL1        0.0695
     19 CL         59.2724   88.6350    7.2939 Cl      1  UNL1       -0.0813
     20 C          60.4472   88.9715    9.5866 C.ar    1  UNL1        0.0324
     21 O          63.5510   90.3685   15.5904 O.3     1  UNL1       -0.4334
     22 C          63.5678   88.8897   15.8411 C.ar    1  UNL1        0.1672
     23 C          62.8174   88.3183   17.0076 C.ar    1  UNL1        0.1363
     24 N          62.8342   86.8395   17.2583 N.ar    1  UNL1       -0.2382
     25 C          63.6014   85.9321   16.3427 C.ar    1  UNL1        0.1104
     26 C          64.3517   86.5036   15.1763 C.ar    1  UNL1        0.0798
     27 CL         65.1188   85.5963   14.2607 Cl      1  UNL1       -0.0805
     28 C          64.3349   87.9824   14.9256 C.ar    1  UNL1        0.0521
@<TRIPOS>BOND
     1    10    11    2
     2    11    12    2
     3    11     8    1
     4     8     1    1
     5     1     2   ar
     6     2     3   ar
     7     3     4    1
     8     3     5   ar
     9     5     6   ar
    10     6     7   ar
    11     7    21    1
    12    21    22    1
    13    22    23   ar
    14    23    24   ar
    15    24    25   ar
    16    25    26   ar
    17    26    27    1
    18    26    28   ar
    19    11    13    1
    20    13    14   ar
    21    14    15   ar
    22    15    16   ar
    23    16    17    1
    24    16    18   ar
    25    18    19    1
    26    18    20   ar
    27     7     1   ar
    28    28    22   ar
    29    20    13   ar
    30     8     9    1
@<TRIPOS>MOLECULE
*****
 28 30 0 0 0
SMALL
GASTEIGER

@<TRIPOS>ATOM
      1 C          60.6564   88.1313   10.4623 C.ar    1  UNL1        0.1190
      2 C          60.1072   88.9136    9.3063 C.ar    1  UNL1        0.0336
      3 C          59.7939   88.2209    8.0133 C.ar    1  UNL1        0.0783
      4 CL         59.2447   89.0032    6.8572 Cl      1  UNL1       -0.0806
      5 C          60.0296   86.7459    7.8763 C.ar    1  UNL1        0.1135
      6 N          60.5788   85.9636    9.0323 N.ar    1  UNL1       -0.2078
      7 C          60.8921   86.6563   10.3253 C.ar    1  UNL1        0.2446
      8 N          60.9698   88.8240   11.7554 N.pl3   1  UNL1       -0.2104
      9 H          60.4069   88.6659   12.5476 H       1  UNL1        0.1739
     10 O          61.3144   90.8504   11.2311 O.2     1  UNL1       -0.1499
     11 S          62.1407   89.7575   11.8416 S.O2    1  UNL1        0.0737
     12 O          62.9670   88.6646   12.4521 O.2     1  UNL1       -0.1499
     13 C          63.3118   90.6910   11.9278 C.ar    1  UNL1        0.1261
     14 C          63.7449   91.4645   10.7178 C.ar    1  UNL1        0.0211
     15 C          64.9159   92.3979   10.8040 C.ar    1  UNL1        0.0136
     16 C          65.6537   92.5579   12.1001 C.ar    1  UNL1        0.0683
     17 CL         66.8247   93.4913   12.1863 Cl      1  UNL1       -0.0814
     18 C          65.2205   91.7844   13.3101 C.ar    1  UNL1        0.0695
     19 CL         65.9584   91.9443   14.6063 Cl      1  UNL1       -0.0813
     20 C          64.0496   90.8509   13.2239 C.ar    1  UNL1        0.0324
     21 O          61.4413   85.8740   11.4814 O.3     1  UNL1       -0.4334
     22 C          62.3744   84.7259   11.2344 C.ar    1  UNL1        0.1672
     23 C          63.1542   84.6551    9.9549 C.ar    1  UNL1        0.1363
     24 N          64.0873   83.5070    9.7078 N.ar    1  UNL1       -0.2382
     25 C          64.2407   82.4296   10.7402 C.ar    1  UNL1        0.1104
     26 C          63.4610   82.5004   12.0196 C.ar    1  UNL1        0.0798
     27 CL         63.6143   81.4230   13.0521 Cl      1  UNL1       -0.0805
     28 C          62.5278   83.6485   12.2667 C.ar    1  UNL1        0.0521
@<TRIPOS>BOND
     1    10    11    2
     2    11    12    2
     3    11     8    1
     4     8     1    1
     5     1     2   ar
     6     2     3   ar
     7     3     4    1
     8     3     5   ar
     9     5     6   ar
    10     6     7   ar
    11     7    21    1
    12    21    22    1
    13    22    23   ar
    14    23    24   ar
    15    24    25   ar
    16    25    26   ar
    17    26    27    1
    18    26    28   ar
    19    11    13    1
    20    13    14   ar
    21    14    15   ar
    22    15    16   ar
    23    16    17    1
    24    16    18   ar
    25    18    19    1
    26    18    20   ar
    27     7     1   ar
    28    28    22   ar
    29    20    13   ar
    30     8     9    1
@<TRIPOS>MOLECULE
*****
 28 30 0 0 0
SMALL
GASTEIGER

@<TRIPOS>ATOM
      1 C          61.2839   88.3744   11.1182 C.ar    1  UNL1        0.1190
      2 C          60.3453   88.5590    9.9629 C.ar    1  UNL1        0.0336
      3 C          60.3230   87.5566    8.8472 C.ar    1  UNL1        0.0783
      4 CL         59.3843   87.7412    7.6917 Cl      1  UNL1       -0.0806
      5 C          61.2393   86.3697    8.8869 C.ar    1  UNL1        0.1135
      6 N          62.1779   86.1851   10.0422 N.ar    1  UNL1       -0.2078
      7 C          62.2002   87.1875   11.1579 C.ar    1  UNL1        0.2446
      8 N          61.3062   89.3767   12.2340 N.pl3   1  UNL1       -0.2104
      9 H          60.4766   89.5932   12.7179 H       1  UNL1        0.1739
     10 O          62.3177   89.7606   14.0586 O.2     1  UNL1       -0.1499
     11 S          62.5924   90.0492   12.6125 S.O2    1  UNL1        0.0737
     12 O          62.8671   90.3377   11.1664 O.2     1  UNL1       -0.1499
     13 C          63.8788   90.7216   12.9910 C.ar    1  UNL1        0.1261
     14 C          64.5758   90.3445   14.2645 C.ar    1  UNL1        0.0211
     15 C          65.8621   91.0169   14.6430 C.ar    1  UNL1        0.0136
     16 C          66.4513   92.0665   13.7480 C.ar    1  UNL1        0.0683
     17 CL         67.7377   92.7390   14.1264 Cl      1  UNL1       -0.0814
     18 C          65.7543   92.4437   12.4745 C.ar    1  UNL1        0.0695
     19 CL         66.3435   93.4933   11.5794 Cl      1  UNL1       -0.0813
     20 C          64.4680   91.7712   12.0960 C.ar    1  UNL1        0.0324
     21 O          63.1388   87.0029   12.3133 O.3     1  UNL1       -0.4334
     22 C          63.2800   85.6554   12.9571 C.ar    1  UNL1        0.1672
     23 C          63.9757   85.5253   14.2797 C.ar    1  UNL1        0.1363
     24 N          64.1168   84.1778   14.9234 N.ar    1  UNL1       -0.2382
     25 C          63.5623   82.9605   14.2446 C.ar    1  UNL1        0.1104
     26 C          62.8666   83.0907   12.9221 C.ar    1  UNL1        0.0798
     27 CL         62.3120   81.8734   12.2433 Cl      1  UNL1       -0.0805
     28 C          62.7255   84.4382   12.2784 C.ar    1  UNL1        0.0521
@<TRIPOS>BOND
     1    10    11    2
     2    11    12    2
     3    11     8    1
     4     8     1    1
     5     1     2   ar
     6     2     3   ar
     7     3     4    1
     8     3     5   ar
     9     5     6   ar
    10     6     7   ar
    11     7    21    1
    12    21    22    1
    13    22    23   ar
    14    23    24   ar
    15    24    25   ar
    16    25    26   ar
    17    26    27    1
    18    26    28   ar
    19    11    13    1
    20    13    14   ar
    21    14    15   ar
    22    15    16   ar
    23    16    17    1
    24    16    18   ar
    25    18    19    1
    26    18    20   ar
    27     7     1   ar
    28    28    22   ar
    29    20    13   ar
    30     8     9    1
@<TRIPOS>MOLECULE
*****
 28 30 0 0 0
SMALL
GASTEIGER

@<TRIPOS>ATOM
      1 C          61.8011   87.1337   10.9379 C.ar    1  UNL1        0.1190
      2 C          61.2961   86.3417    9.7685 C.ar    1  UNL1        0.0336
      3 C          60.3138   86.9552    8.8153 C.ar    1  UNL1        0.0783
      4 CL         59.8088   86.1631    7.6457 Cl      1  UNL1       -0.0806
      5 C          59.8366   88.3607    9.0314 C.ar    1  UNL1        0.1135
      6 N          60.3416   89.1528   10.2008 N.ar    1  UNL1       -0.2078
      7 C          61.3238   88.5393   11.1541 C.ar    1  UNL1        0.2446
      8 N          62.7834   86.5203   11.8913 N.pl3   1  UNL1       -0.2104
      9 H          63.4608   87.0837   12.3304 H       1  UNL1        0.1739
     10 O          62.1401   85.3289   13.5243 O.2     1  UNL1       -0.1499
     11 S          62.7335   85.0483   12.1756 S.O2    1  UNL1        0.0737
     12 O          63.3269   84.7677   10.8269 O.2     1  UNL1       -0.1499
     13 C          62.6836   83.5763   12.4599 C.ar    1  UNL1        0.1261
     14 C          62.4555   83.0902   13.8605 C.ar    1  UNL1        0.0211
     15 C          62.4056   81.6183   14.1448 C.ar    1  UNL1        0.0136
     16 C          62.5839   80.6324   13.0284 C.ar    1  UNL1        0.0683
     17 CL         62.5340   79.1604   13.3127 Cl      1  UNL1       -0.0814
     18 C          62.8120   81.1185   11.6278 C.ar    1  UNL1        0.0695
     19 CL         62.9902   80.1325   10.5115 Cl      1  UNL1       -0.0813
     20 C          62.8619   82.5904   11.3435 C.ar    1  UNL1        0.0324
     21 O          61.8289   89.3313   12.3236 O.3     1  UNL1       -0.4334
     22 C          62.9546   90.3054   12.1397 C.ar    1  UNL1        0.1672
     23 C          63.1622   90.9695   10.8108 C.ar    1  UNL1        0.1363
     24 N          64.2879   91.9436   10.6269 N.ar    1  UNL1       -0.2382
     25 C          65.2061   92.2536   11.7719 C.ar    1  UNL1        0.1104
     26 C          64.9985   91.5895   13.1007 C.ar    1  UNL1        0.0798
     27 CL         65.9167   91.8995   14.2457 Cl      1  UNL1       -0.0805
     28 C          63.8728   90.6154   13.2846 C.ar    1  UNL1        0.0521
@<TRIPOS>BOND
     1    10    11    2
     2    11    12    2
     3    11     8    1
     4     8     1    1
     5     1     2   ar
     6     2     3   ar
     7     3     4    1
     8     3     5   ar
     9     5     6   ar
    10     6     7   ar
    11     7    21    1
    12    21    22    1
    13    22    23   ar
    14    23    24   ar
    15    24    25   ar
    16    25    26   ar
    17    26    27    1
    18    26    28   ar
    19    11    13    1
    20    13    14   ar
    21    14    15   ar
    22    15    16   ar
    23    16    17    1
    24    16    18   ar
    25    18    19    1
    26    18    20   ar
    27     7     1   ar
    28    28    22   ar
    29    20    13   ar
    30     8     9    1
@<TRIPOS>MOLECULE
*****
 28 30 0 0 0
SMALL
GASTEIGER

@<TRIPOS>ATOM
      1 C          63.3051   83.8428   12.7497 C.ar    1  UNL1        0.1190
      2 C          62.4223   82.6354   12.6361 C.ar    1  UNL1        0.0336
      3 C          61.9535   81.9300   13.8740 C.ar    1  UNL1        0.0783
      4 CL         61.0707   80.7226   13.7604 Cl      1  UNL1       -0.0806
      5 C          62.3673   82.4320   15.2256 C.ar    1  UNL1        0.1135
      6 N          63.2500   83.6394   15.3392 N.ar    1  UNL1       -0.2078
      7 C          63.7189   84.3448   14.1013 C.ar    1  UNL1        0.2446
      8 N          63.7740   84.5483   11.5118 N.pl3   1  UNL1       -0.2104
      9 H          64.7180   84.4887   11.2389 H       1  UNL1        0.1739
     10 O          63.2597   84.6242    9.4552 O.2     1  UNL1       -0.1499
     11 S          62.8045   85.3446   10.6895 S.O2    1  UNL1        0.0737
     12 O          62.3493   86.0650   11.9239 O.2     1  UNL1       -0.1499
     13 C          61.8350   86.1409    9.8673 C.ar    1  UNL1        0.1261
     14 C          61.2260   85.5400    8.6353 C.ar    1  UNL1        0.0211
     15 C          60.2565   86.3363    7.8131 C.ar    1  UNL1        0.0136
     16 C          59.8961   87.7334    8.2229 C.ar    1  UNL1        0.0683
     17 CL         58.9266   88.5297    7.4007 Cl      1  UNL1       -0.0814
     18 C          60.5051   88.3343    9.4550 C.ar    1  UNL1        0.0695
     19 CL         60.1447   89.7315    9.8648 Cl      1  UNL1       -0.0813
     20 C          61.4746   87.5381   10.2772 C.ar    1  UNL1        0.0324
     21 O          64.6017   85.5523   14.2149 O.3     1  UNL1       -0.4334
     22 C          64.1291   86.7583   14.9714 C.ar    1  UNL1        0.1672
     23 C          63.4587   86.5931   16.3031 C.ar    1  UNL1        0.1363
     24 N          62.9862   87.7991   17.0596 N.ar    1  UNL1       -0.2382
     25 C          63.1841   89.1703   16.4844 C.ar    1  UNL1        0.1104
     26 C          63.8544   89.3354   15.1528 C.ar    1  UNL1        0.0798
     27 CL         64.0523   90.7066   14.5776 Cl      1  UNL1       -0.0805
     28 C          64.3270   88.1294   14.3963 C.ar    1  UNL1        0.0521
@<TRIPOS>BOND
     1    10    11    2
     2    11    12    2
     3    11     8    1
     4     8     1    1
     5     1     2   ar
     6     2     3   ar
     7     3     4    1
     8     3     5   ar
     9     5     6   ar
    10     6     7   ar
    11     7    21    1
    12    21    22    1
    13    22    23   ar
    14    23    24   ar
    15    24    25   ar
    16    25    26   ar
    17    26    27    1
    18    26    28   ar
    19    11    13    1
    20    13    14   ar
    21    14    15   ar
    22    15    16   ar
    23    16    17    1
    24    16    18   ar
    25    18    19    1
    26    18    20   ar
    27     7     1   ar
    28    28    22   ar
    29    20    13   ar
    30     8     9    1
@<TRIPOS>MOLECULE
*****
 28 30 0 0 0
SMALL
GASTEIGER

@<TRIPOS>ATOM
      1 C          63.8195   87.5798   14.8545 C.ar    1  UNL1        0.1190
      2 C          63.4255   86.8738   16.1178 C.ar    1  UNL1        0.0336
      3 C          63.0262   87.6667   17.3269 C.ar    1  UNL1        0.0783
      4 CL         62.6321   86.9606   18.5903 Cl      1  UNL1       -0.0806
      5 C          63.0210   89.1657   17.2725 C.ar    1  UNL1        0.1135
      6 N          63.4151   89.8718   16.0092 N.ar    1  UNL1       -0.2078
      7 C          63.8144   89.0788   14.8001 C.ar    1  UNL1        0.2446
      8 N          64.2188   86.7869   13.6453 N.pl3   1  UNL1       -0.2104
      9 H          64.7630   87.2056   12.9398 H       1  UNL1        0.1739
     10 O          65.0255   84.9166   14.2378 O.2     1  UNL1       -0.1499
     11 S          63.7890   85.3561   13.5113 S.O2    1  UNL1        0.0737
     12 O          62.5525   85.7956   12.7847 O.2     1  UNL1       -0.1499
     13 C          63.3591   83.9252   13.3771 C.ar    1  UNL1        0.1261
     14 C          62.7816   83.2019   14.5575 C.ar    1  UNL1        0.0211
     15 C          62.3517   81.7711   14.4234 C.ar    1  UNL1        0.0136
     16 C          62.4993   81.0637   13.1090 C.ar    1  UNL1        0.0683
     17 CL         62.0694   79.6328   12.9749 Cl      1  UNL1       -0.0814
     18 C          63.0769   81.7871   11.9287 C.ar    1  UNL1        0.0695
     19 CL         63.2245   81.0796   10.6142 Cl      1  UNL1       -0.0813
     20 C          63.5067   83.2178   12.0627 C.ar    1  UNL1        0.0324
     21 O          64.2085   89.7849   13.5367 O.3     1  UNL1       -0.4334
     22 C          64.9992   91.0578   13.6043 C.ar    1  UNL1        0.1672
     23 C          64.9491   92.0332   12.4657 C.ar    1  UNL1        0.1363
     24 N          65.7398   93.3061   12.5333 N.ar    1  UNL1       -0.2382
     25 C          66.5806   93.6035   13.7394 C.ar    1  UNL1        0.1104
     26 C          66.6307   92.6281   14.8778 C.ar    1  UNL1        0.0798
     27 CL         67.4716   92.9256   16.0839 Cl      1  UNL1       -0.0805
     28 C          65.8400   91.3553   14.8103 C.ar    1  UNL1        0.0521
@<TRIPOS>BOND
     1    10    11    2
     2    11    12    2
     3    11     8    1
     4     8     1    1
     5     1     2   ar
     6     2     3   ar
     7     3     4    1
     8     3     5   ar
     9     5     6   ar
    10     6     7   ar
    11     7    21    1
    12    21    22    1
    13    22    23   ar
    14    23    24   ar
    15    24    25   ar
    16    25    26   ar
    17    26    27    1
    18    26    28   ar
    19    11    13    1
    20    13    14   ar
    21    14    15   ar
    22    15    16   ar
    23    16    17    1
    24    16    18   ar
    25    18    19    1
    26    18    20   ar
    27     7     1   ar
    28    28    22   ar
    29    20    13   ar
    30     8     9    1
@<TRIPOS>MOLECULE
*****
 28 30 0 0 0
SMALL
GASTEIGER

@<TRIPOS>ATOM
      1 C          64.1582   89.8788   14.4658 C.ar    1  UNL1        0.1190
      2 C          65.5148   90.4840   14.6738 C.ar    1  UNL1        0.0336
      3 C          66.0025   91.5651   13.7555 C.ar    1  UNL1        0.0783
      4 CL         67.3592   92.1704   13.9635 Cl      1  UNL1       -0.0806
      5 C          65.1336   92.0411   12.6293 C.ar    1  UNL1        0.1135
      6 N          63.7770   91.4359   12.4213 N.ar    1  UNL1       -0.2078
      7 C          63.2893   90.3548   13.3395 C.ar    1  UNL1        0.2446
      8 N          63.6704   88.7976   15.3840 N.pl3   1  UNL1       -0.2104
      9 H          63.3081   89.0301   16.2694 H       1  UNL1        0.1739
     10 O          64.1720   87.7926   13.5845 O.2     1  UNL1       -0.1499
     11 S          63.7347   87.3622   14.9533 S.O2    1  UNL1        0.0737
     12 O          63.2973   86.9319   16.3220 O.2     1  UNL1       -0.1499
     13 C          63.7989   85.9268   14.5225 C.ar    1  UNL1        0.1261
     14 C          64.1371   84.8589   15.5201 C.ar    1  UNL1        0.0211
     15 C          64.2014   83.4235   15.0894 C.ar    1  UNL1        0.0136
     16 C          63.9274   83.0561   13.6612 C.ar    1  UNL1        0.0683
     17 CL         63.9916   81.6206   13.2304 Cl      1  UNL1       -0.0814
     18 C          63.5891   84.1240   12.6636 C.ar    1  UNL1        0.0695
     19 CL         63.3151   83.7565   11.2353 Cl      1  UNL1       -0.0813
     20 C          63.5249   85.5594   13.0943 C.ar    1  UNL1        0.0324
     21 O          61.9326   89.7495   13.1315 O.3     1  UNL1       -0.4334
     22 C          61.4835   89.3717   11.7511 C.ar    1  UNL1        0.1672
     23 C          60.4453   90.1954   11.0484 C.ar    1  UNL1        0.1363
     24 N          59.9962   89.8175    9.6680 N.ar    1  UNL1       -0.2382
     25 C          60.5855   88.6161    8.9902 C.ar    1  UNL1        0.1104
     26 C          61.6237   87.7925    9.6928 C.ar    1  UNL1        0.0798
     27 CL         62.2129   86.5910    9.0150 Cl      1  UNL1       -0.0805
     28 C          62.0727   88.1703   11.0733 C.ar    1  UNL1        0.0521
@<TRIPOS>BOND
     1    10    11    2
     2    11    12    2
     3    11     8    1
     4     8     1    1
     5     1     2   ar
     6     2     3   ar
     7     3     4    1
     8     3     5   ar
     9     5     6   ar
    10     6     7   ar
    11     7    21    1
    12    21    22    1
    13    22    23   ar
    14    23    24   ar
    15    24    25   ar
    16    25    26   ar
    17    26    27    1
    18    26    28   ar
    19    11    13    1
    20    13    14   ar
    21    14    15   ar
    22    15    16   ar
    23    16    17    1
    24    16    18   ar
    25    18    19    1
    26    18    20   ar
    27     7     1   ar
    28    28    22   ar
    29    20    13   ar
    30     8     9    1
@<TRIPOS>MOLECULE
*****
 28 30 0 0 0
SMALL
GASTEIGER

@<TRIPOS>ATOM
      1 C          63.9816   87.6498   14.3947 C.ar    1  UNL1        0.1190
      2 C          64.5824   88.9100   14.9432 C.ar    1  UNL1        0.0336
      3 C          64.5366   90.1748   14.1381 C.ar    1  UNL1        0.0783
      4 CL         65.1374   91.4351   14.6866 Cl      1  UNL1       -0.0806
      5 C          63.8901   90.1795   12.7846 C.ar    1  UNL1        0.1135
      6 N          63.2893   88.9193   12.2361 N.ar    1  UNL1       -0.2078
      7 C          63.3350   87.6544   13.0412 C.ar    1  UNL1        0.2446
      8 N          64.0273   86.3849   15.1997 N.pl3   1  UNL1       -0.2104
      9 H          64.2398   86.4202   16.1603 H       1  UNL1        0.1739
     10 O          62.3370   85.1125   15.0448 O.2     1  UNL1       -0.1499
     11 S          63.7491   85.0663   14.5411 S.O2    1  UNL1        0.0737
     12 O          65.1612   85.0201   14.0373 O.2     1  UNL1       -0.1499
     13 C          63.4710   83.7476   13.8824 C.ar    1  UNL1        0.1261
     14 C          64.3337   83.2790   12.7483 C.ar    1  UNL1        0.0211
     15 C          64.0557   81.9604   12.0896 C.ar    1  UNL1        0.0136
     16 C          62.9149   81.1103   12.5651 C.ar    1  UNL1        0.0683
     17 CL         62.6368   79.7916   11.9064 Cl      1  UNL1       -0.0814
     18 C          62.0523   81.5789   13.6992 C.ar    1  UNL1        0.0695
     19 CL         60.9115   80.7287   14.1747 Cl      1  UNL1       -0.0813
     20 C          62.3303   82.8975   14.3579 C.ar    1  UNL1        0.0324
     21 O          62.7342   86.3941   12.4927 O.3     1  UNL1       -0.4334
     22 C          62.0840   86.3997   11.1409 C.ar    1  UNL1        0.1672
     23 C          60.8035   87.1514   10.9277 C.ar    1  UNL1        0.1363
     24 N          60.1534   87.1570    9.5759 N.ar    1  UNL1       -0.2382
     25 C          60.7837   86.4109    8.4374 C.ar    1  UNL1        0.1104
     26 C          62.0641   85.6593    8.6507 C.ar    1  UNL1        0.0798
     27 CL         62.6944   84.9132    7.5122 Cl      1  UNL1       -0.0805
     28 C          62.7142   85.6537   10.0024 C.ar    1  UNL1        0.0521
@<TRIPOS>BOND
     1    10    11    2
     2    11    12    2
     3    11     8    1
     4     8     1    1
     5     1     2   ar
     6     2     3   ar
     7     3     4    1
     8     3     5   ar
     9     5     6   ar
    10     6     7   ar
    11     7    21    1
    12    21    22    1
    13    22    23   ar
    14    23    24   ar
    15    24    25   ar
    16    25    26   ar
    17    26    27    1
    18    26    28   ar
    19    11    13    1
    20    13    14   ar
    21    14    15   ar
    22    15    16   ar
    23    16    17    1
    24    16    18   ar
    25    18    19    1
    26    18    20   ar
    27     7     1   ar
    28    28    22   ar
    29    20    13   ar
    30     8     9    1
