@<TRIPOS>MOLECULE
*****
 35 40 0 0 0
SMALL
GASTEIGER

@<TRIPOS>ATOM
      1 C          63.1916   86.4574   15.9518 C.ar    1  UNL1        0.1534
      2 N          63.0326   86.7304   17.4181 N.ar    1  UNL1       -0.1329
      3 N          63.1046   88.1381   17.9310 N.ar    1  UNL1       -0.1452
      4 C          63.3356   89.2729   16.9776 C.ar    1  UNL1        0.1222
      5 C          63.4947   88.9999   15.5113 C.ar    1  UNL1        0.0237
      6 C          63.7257   90.1346   14.5578 C.ar    1  UNL1        0.0018
      7 C          63.8848   89.8616   13.0915 C.ar    1  UNL1        0.0028
      8 C          63.8128   88.4538   12.5786 C.ar    1  UNL1        0.0002
      9 C          63.5817   87.3191   13.5320 C.ar    1  UNL1        0.0029
     10 C          63.4227   87.5921   14.9984 C.ar    1  UNL1        0.0349
     11 C          61.5855   80.1126   13.8511 C.3     1  UNL1        0.0948
     12 C          62.9037   80.8265   13.9000 C.2     1  UNL1        0.2262
     13 O          64.1501   80.1327   13.4360 O.2     1  UNL1       -0.2749
     14 N          62.9757   82.2342   14.4130 N.am    1  UNL1       -0.2761
     15 C          61.7293   82.9280   14.8770 C.3     1  UNL1        0.1149
     16 C          61.8013   84.3357   15.3899 C.3     1  UNL1        0.1137
     17 N          63.1196   85.0496   15.4389 N.pl3   1  UNL1       -0.2900
     18 C          64.3659   84.3559   14.9748 C.3     1  UNL1        0.0941
     19 C          65.6843   85.0698   15.0238 C.3     1  UNL1        0.0233
     20 C          64.2940   82.9481   14.4619 C.3     1  UNL1        0.1131
     21 C          64.1158   90.9963   12.1381 C.ar    1  UNL1        0.0333
     22 C          63.3792   91.0405   10.8322 C.ar    1  UNL1       -0.0188
     23 C          62.4115   89.9500   10.4798 C.3     1  UNL1        0.0311
     24 C          63.6102   92.1752    9.8788 C.ar    1  UNL1       -0.0040
     25 C          64.5779   93.2657   10.2312 C.ar    1  UNL1        0.0057
     26 C          65.3147   93.2216   11.5372 C.ar    1  UNL1        0.0717
     27 C          66.3219   94.1467   12.1531 C.ar    1  UNL1        0.1704
     28 N          66.7134   93.5838   13.4872 N.ar    1  UNL1       -0.0621
     29 O          65.9481   92.3108   13.6958 O.2     1  UNL1       -0.3522
     30 C          65.0836   92.0869   12.4906 C.ar    1  UNL1        0.1777
     31 N          66.8458   95.4126   11.5422 N.pl3   1  UNL1       -0.3171
     32 H          66.9431   96.2220   12.0942 H       1  UNL1        0.1482
     33 C          67.2213   95.4453   10.0904 C.3     1  UNL1        0.0706
     34 C          67.3316   96.1910    8.7936 C.3     1  UNL1        0.0212
     35 C          67.7614   94.7561    8.8724 C.3     1  UNL1        0.0212
@<TRIPOS>BOND
     1    11    12    1
     2    12    13    2
     3    12    14   am
     4    14    15    1
     5    15    16    1
     6    16    17    1
     7    17     1    1
     8     1     2   ar
     9     2     3   ar
    10     3     4   ar
    11     4     5   ar
    12     5     6   ar
    13     6     7   ar
    14     7    21    1
    15    21    22   ar
    16    22    23    1
    17    22    24   ar
    18    24    25   ar
    19    25    26   ar
    20    26    27   ar
    21    27    31    1
    22    31    33    1
    23    33    34    1
    24    34    35    1
    25    27    28   ar
    26    28    29   ar
    27    29    30   ar
    28     7     8   ar
    29     8     9   ar
    30     9    10   ar
    31    17    18    1
    32    18    19    1
    33    18    20    1
    34    20    14    1
    35    10     1   ar
    36    10     5   ar
    37    30    21   ar
    38    30    26   ar
    39    35    33    1
    40    31    32    1
@<TRIPOS>MOLECULE
*****
 35 40 0 0 0
SMALL
GASTEIGER

@<TRIPOS>ATOM
      1 C          62.7900   90.2484   11.9398 C.ar    1  UNL1        0.1534
      2 N          61.7789   91.0487   11.1737 N.ar    1  UNL1       -0.1329
      3 N          60.7459   90.3507   10.3397 N.ar    1  UNL1       -0.1452
      4 C          60.7241   88.8524   10.2717 C.ar    1  UNL1        0.1222
      5 C          61.7353   88.0521   11.0378 C.ar    1  UNL1        0.0237
      6 C          61.7135   86.5538   10.9698 C.ar    1  UNL1        0.0018
      7 C          62.7247   85.7535   11.7359 C.ar    1  UNL1        0.0028
      8 C          63.7577   86.4515   12.5701 C.ar    1  UNL1        0.0002
      9 C          63.7795   87.9498   12.6380 C.ar    1  UNL1        0.0029
     10 C          62.7682   88.7501   11.8719 C.ar    1  UNL1        0.0349
     11 C          66.9983   92.7771   16.7508 C.3     1  UNL1        0.0948
     12 C          66.9222   93.0403   15.2761 C.2     1  UNL1        0.2262
     13 O          67.8791   94.0015   14.6354 O.2     1  UNL1       -0.2749
     14 N          65.8892   92.3423   14.4421 N.am    1  UNL1       -0.2761
     15 C          64.9323   91.3812   15.0828 C.3     1  UNL1        0.1149
     16 C          63.8992   90.6832   14.2487 C.3     1  UNL1        0.1137
     17 N          63.8231   90.9464   12.7739 N.pl3   1  UNL1       -0.2900
     18 C          64.7800   91.9075   12.1332 C.3     1  UNL1        0.0941
     19 C          64.7039   92.1707   10.6584 C.3     1  UNL1        0.0233
     20 C          65.8130   92.6055   12.9672 C.3     1  UNL1        0.1131
     21 C          62.7029   84.2552   11.6680 C.ar    1  UNL1        0.0333
     22 C          63.2015   83.5528   10.4400 C.ar    1  UNL1       -0.0188
     23 C          63.7219   84.3487    9.2800 C.3     1  UNL1        0.0311
     24 C          63.1797   82.0545   10.3721 C.ar    1  UNL1       -0.0040
     25 C          62.6593   81.2586   11.5321 C.ar    1  UNL1        0.0057
     26 C          62.1606   81.9610   12.7601 C.ar    1  UNL1        0.0717
     27 C          61.5943   81.4467   14.0504 C.ar    1  UNL1        0.1704
     28 N          61.2661   82.6271   14.9157 N.ar    1  UNL1       -0.0621
     29 O          61.6295   83.8709   14.1603 O.2     1  UNL1       -0.3522
     30 C          62.1824   83.4593   12.8281 C.ar    1  UNL1        0.1777
     31 N          61.3917   80.0050   14.4118 N.pl3   1  UNL1       -0.3171
     32 H          62.1693   79.4291   14.5933 H       1  UNL1        0.1482
     33 C          60.0045   79.4408   14.4966 C.3     1  UNL1        0.0706
     34 C          59.0835   78.2575   14.5358 C.3     1  UNL1        0.0212
     35 C          58.5226   79.6469   14.6045 C.3     1  UNL1        0.0212
@<TRIPOS>BOND
     1    11    12    1
     2    12    13    2
     3    12    14   am
     4    14    15    1
     5    15    16    1
     6    16    17    1
     7    17     1    1
     8     1     2   ar
     9     2     3   ar
    10     3     4   ar
    11     4     5   ar
    12     5     6   ar
    13     6     7   ar
    14     7    21    1
    15    21    22   ar
    16    22    23    1
    17    22    24   ar
    18    24    25   ar
    19    25    26   ar
    20    26    27   ar
    21    27    31    1
    22    31    33    1
    23    33    34    1
    24    34    35    1
    25    27    28   ar
    26    28    29   ar
    27    29    30   ar
    28     7     8   ar
    29     8     9   ar
    30     9    10   ar
    31    17    18    1
    32    18    19    1
    33    18    20    1
    34    20    14    1
    35    10     1   ar
    36    10     5   ar
    37    30    21   ar
    38    30    26   ar
    39    35    33    1
    40    31    32    1
@<TRIPOS>MOLECULE
*****
 35 40 0 0 0
SMALL
GASTEIGER

@<TRIPOS>ATOM
      1 C          63.1099   86.2467   16.2319 C.ar    1  UNL1        0.1534
      2 N          62.4983   86.1853   17.6002 N.ar    1  UNL1       -0.1329
      3 N          62.4123   87.4255   18.4395 N.ar    1  UNL1       -0.1452
      4 C          62.9380   88.7270   17.9106 C.ar    1  UNL1        0.1222
      5 C          63.5497   88.7884   16.5424 C.ar    1  UNL1        0.0237
      6 C          64.0754   90.0899   16.0135 C.ar    1  UNL1        0.0018
      7 C          64.6870   90.1512   14.6453 C.ar    1  UNL1        0.0028
      8 C          64.7730   88.9110   13.8059 C.ar    1  UNL1        0.0002
      9 C          64.2473   87.6095   14.3347 C.ar    1  UNL1        0.0029
     10 C          63.6356   87.5482   15.7031 C.ar    1  UNL1        0.0349
     11 C          62.2419   80.4227   12.6854 C.3     1  UNL1        0.0948
     12 C          63.4539   81.2860   12.8744 C.2     1  UNL1        0.2262
     13 O          64.7520   80.9091   12.2239 O.2     1  UNL1       -0.2749
     14 N          63.3679   82.5261   13.7137 N.am    1  UNL1       -0.2761
     15 C          62.0699   82.9030   14.3641 C.3     1  UNL1        0.1149
     16 C          61.9839   84.1432   15.2036 C.3     1  UNL1        0.1137
     17 N          63.1959   85.0065   15.3925 N.pl3   1  UNL1       -0.2900
     18 C          64.4940   84.6296   14.7421 C.3     1  UNL1        0.0941
     19 C          65.7060   85.4929   14.9311 C.3     1  UNL1        0.0233
     20 C          64.5800   83.3894   13.9027 C.3     1  UNL1        0.1131
     21 C          65.2127   91.4527   14.1164 C.ar    1  UNL1        0.0333
     22 C          66.0184   92.3529   15.0054 C.ar    1  UNL1       -0.0188
     23 C          66.2983   91.9517   16.4234 C.3     1  UNL1        0.0311
     24 C          66.5441   93.6545   14.4765 C.ar    1  UNL1       -0.0040
     25 C          66.2641   94.0557   13.0586 C.ar    1  UNL1        0.0057
     26 C          65.4584   93.1555   12.1695 C.ar    1  UNL1        0.0717
     27 C          65.0248   93.2836   10.7393 C.ar    1  UNL1        0.1704
     28 N          64.2311   92.0614   10.3843 N.ar    1  UNL1       -0.0621
     29 O          64.1742   91.1778   11.5950 O.2     1  UNL1       -0.3522
     30 C          64.9327   91.8539   12.6984 C.ar    1  UNL1        0.1777
     31 N          65.3311   94.4324    9.8247 N.pl3   1  UNL1       -0.3171
     32 H          64.6189   95.0632    9.5711 H       1  UNL1        0.1482
     33 C          66.7223   94.6202    9.2964 C.3     1  UNL1        0.0706
     34 C          67.7276   95.4448    8.5484 C.3     1  UNL1        0.0212
     35 C          68.1268   94.1208    9.1294 C.3     1  UNL1        0.0212
@<TRIPOS>BOND
     1    11    12    1
     2    12    13    2
     3    12    14   am
     4    14    15    1
     5    15    16    1
     6    16    17    1
     7    17     1    1
     8     1     2   ar
     9     2     3   ar
    10     3     4   ar
    11     4     5   ar
    12     5     6   ar
    13     6     7   ar
    14     7    21    1
    15    21    22   ar
    16    22    23    1
    17    22    24   ar
    18    24    25   ar
    19    25    26   ar
    20    26    27   ar
    21    27    31    1
    22    31    33    1
    23    33    34    1
    24    34    35    1
    25    27    28   ar
    26    28    29   ar
    27    29    30   ar
    28     7     8   ar
    29     8     9   ar
    30     9    10   ar
    31    17    18    1
    32    18    19    1
    33    18    20    1
    34    20    14    1
    35    10     1   ar
    36    10     5   ar
    37    30    21   ar
    38    30    26   ar
    39    35    33    1
    40    31    32    1
@<TRIPOS>MOLECULE
*****
 35 40 0 0 0
SMALL
GASTEIGER

@<TRIPOS>ATOM
      1 C          63.3261   89.8497   11.7885 C.ar    1  UNL1        0.1534
      2 N          62.5863   90.3639   10.5893 N.ar    1  UNL1       -0.1329
      3 N          61.6670   89.4549    9.8287 N.ar    1  UNL1       -0.1452
      4 C          61.4876   88.0317   10.2673 C.ar    1  UNL1        0.1222
      5 C          62.2275   87.5175   11.4665 C.ar    1  UNL1        0.0237
      6 C          62.0480   86.0943   11.9050 C.ar    1  UNL1        0.0018
      7 C          62.7879   85.5801   13.1042 C.ar    1  UNL1        0.0028
      8 C          63.7073   86.4891   13.8649 C.ar    1  UNL1        0.0002
      9 C          63.8867   87.9123   13.4264 C.ar    1  UNL1        0.0029
     10 C          63.1467   88.4265   12.2271 C.ar    1  UNL1        0.0349
     11 C          67.3435   93.1833   16.2605 C.3     1  UNL1        0.0948
     12 C          67.0034   93.4856   14.8312 C.2     1  UNL1        0.2262
     13 O          67.5827   94.6970   14.1625 O.2     1  UNL1       -0.2749
     14 N          66.0841   92.5767   14.0706 N.am    1  UNL1       -0.2761
     15 C          65.5049   91.3653   14.7392 C.3     1  UNL1        0.1149
     16 C          64.5855   90.4563   13.9785 C.3     1  UNL1        0.1137
     17 N          64.2455   90.7587   12.5492 N.pl3   1  UNL1       -0.2900
     18 C          64.8248   91.9700   11.8806 C.3     1  UNL1        0.0941
     19 C          64.4847   92.2724   10.4512 C.3     1  UNL1        0.0233
     20 C          65.7441   92.8790   12.6412 C.3     1  UNL1        0.1131
     21 C          62.6085   84.1569   13.5428 C.ar    1  UNL1        0.0333
     22 C          62.2907   83.8481   14.9758 C.ar    1  UNL1       -0.0188
     23 C          62.1522   84.9625   15.9703 C.3     1  UNL1        0.0311
     24 C          62.1113   82.4249   15.4144 C.ar    1  UNL1       -0.0040
     25 C          62.2497   81.3105   14.4199 C.ar    1  UNL1        0.0057
     26 C          62.5676   81.6193   12.9868 C.ar    1  UNL1        0.0717
     27 C          62.7627   80.7372   11.7894 C.ar    1  UNL1        0.1704
     28 N          63.0626   81.6152   10.6109 N.ar    1  UNL1       -0.0621
     29 O          63.0529   83.0399   11.0798 O.2     1  UNL1       -0.3522
     30 C          62.7470   83.0425   12.5483 C.ar    1  UNL1        0.1777
     31 N          62.6734   79.2399   11.7734 N.pl3   1  UNL1       -0.3171
     32 H          62.3839   78.7555   12.5801 H       1  UNL1        0.1482
     33 C          63.0254   78.4809   10.5285 C.3     1  UNL1        0.0706
     34 C          63.3778   77.1905    9.8498 C.3     1  UNL1        0.0212
     35 C          63.2827   78.4565    9.0509 C.3     1  UNL1        0.0212
@<TRIPOS>BOND
     1    11    12    1
     2    12    13    2
     3    12    14   am
     4    14    15    1
     5    15    16    1
     6    16    17    1
     7    17     1    1
     8     1     2   ar
     9     2     3   ar
    10     3     4   ar
    11     4     5   ar
    12     5     6   ar
    13     6     7   ar
    14     7    21    1
    15    21    22   ar
    16    22    23    1
    17    22    24   ar
    18    24    25   ar
    19    25    26   ar
    20    26    27   ar
    21    27    31    1
    22    31    33    1
    23    33    34    1
    24    34    35    1
    25    27    28   ar
    26    28    29   ar
    27    29    30   ar
    28     7     8   ar
    29     8     9   ar
    30     9    10   ar
    31    17    18    1
    32    18    19    1
    33    18    20    1
    34    20    14    1
    35    10     1   ar
    36    10     5   ar
    37    30    21   ar
    38    30    26   ar
    39    35    33    1
    40    31    32    1
@<TRIPOS>MOLECULE
*****
 35 40 0 0 0
SMALL
GASTEIGER

@<TRIPOS>ATOM
      1 C          61.0607   87.8073    9.2572 C.ar    1  UNL1        0.1534
      2 N          61.1118   86.3104    9.1750 N.ar    1  UNL1       -0.1329
      3 N          61.8847   85.5293   10.1960 N.ar    1  UNL1       -0.1452
      4 C          62.6064   86.2449   11.2991 C.ar    1  UNL1        0.1222
      5 C          62.5553   87.7418   11.3813 C.ar    1  UNL1        0.0237
      6 C          63.2771   88.4574   12.4844 C.ar    1  UNL1        0.0018
      7 C          63.2260   89.9543   12.5666 C.ar    1  UNL1        0.0028
      8 C          62.4531   90.7355   11.5456 C.ar    1  UNL1        0.0002
      9 C          61.7314   90.0199   10.4424 C.ar    1  UNL1        0.0029
     10 C          61.7825   88.5230   10.3603 C.ar    1  UNL1        0.0349
     11 C          58.5274   92.2140    4.6297 C.3     1  UNL1        0.0948
     12 C          57.9693   90.9322    5.1732 C.2     1  UNL1        0.2262
     13 O          56.6384   90.4316    4.6958 O.2     1  UNL1       -0.2749
     14 N          58.7422   90.1510    6.1942 N.am    1  UNL1       -0.2761
     15 C          60.0731   90.6516    6.6716 C.3     1  UNL1        0.1149
     16 C          60.8460   89.8704    7.6927 C.3     1  UNL1        0.1137
     17 N          60.2879   88.5886    8.2362 N.pl3   1  UNL1       -0.2900
     18 C          58.9569   88.0879    7.7587 C.3     1  UNL1        0.0941
     19 C          58.3989   86.8060    8.3023 C.3     1  UNL1        0.0233
     20 C          58.1841   88.8691    6.7378 C.3     1  UNL1        0.1131
     21 C          63.9477   90.6699   13.6697 C.ar    1  UNL1        0.0333
     22 C          63.6045   90.3816   15.1012 C.ar    1  UNL1       -0.0188
     23 C          62.5396   89.3775   15.4294 C.3     1  UNL1        0.0311
     24 C          64.3263   91.0972   16.2043 C.ar    1  UNL1       -0.0040
     25 C          65.3912   92.1013   15.8760 C.ar    1  UNL1        0.0057
     26 C          65.7344   92.3897   14.4445 C.ar    1  UNL1        0.0717
     27 C          66.7306   93.3205   13.8191 C.ar    1  UNL1        0.1704
     28 N          66.6245   93.1801   12.3295 N.ar    1  UNL1       -0.0621
     29 O          65.5628   92.1626   12.0342 O.2     1  UNL1       -0.3522
     30 C          65.0127   91.6740   13.3414 C.ar    1  UNL1        0.1777
     31 N          67.6682   94.2318   14.5543 N.pl3   1  UNL1       -0.3171
     32 H          67.6245   95.2045   14.4089 H       1  UNL1        0.1482
     33 C          68.6725   93.6610   15.5112 C.3     1  UNL1        0.0706
     34 C          69.9160   93.8168   16.3355 C.3     1  UNL1        0.0212
     35 C          69.1685   92.5164   16.3443 C.3     1  UNL1        0.0212
@<TRIPOS>BOND
     1    11    12    1
     2    12    13    2
     3    12    14   am
     4    14    15    1
     5    15    16    1
     6    16    17    1
     7    17     1    1
     8     1     2   ar
     9     2     3   ar
    10     3     4   ar
    11     4     5   ar
    12     5     6   ar
    13     6     7   ar
    14     7    21    1
    15    21    22   ar
    16    22    23    1
    17    22    24   ar
    18    24    25   ar
    19    25    26   ar
    20    26    27   ar
    21    27    31    1
    22    31    33    1
    23    33    34    1
    24    34    35    1
    25    27    28   ar
    26    28    29   ar
    27    29    30   ar
    28     7     8   ar
    29     8     9   ar
    30     9    10   ar
    31    17    18    1
    32    18    19    1
    33    18    20    1
    34    20    14    1
    35    10     1   ar
    36    10     5   ar
    37    30    21   ar
    38    30    26   ar
    39    35    33    1
    40    31    32    1
