@<TRIPOS>MOLECULE
*****
 41 45 0 0 0
SMALL
GASTEIGER

@<TRIPOS>ATOM
      1 C          61.7071   88.1480   10.1718 C.3     1  UNL1        0.0758
      2 C          61.3127   87.0596    9.2181 C.3     1  UNL1        0.0370
      3 C          60.3349   87.3451    8.1170 C.3     1  UNL1        0.0741
      4 N          59.7515   88.7191    7.9697 N.3     1  UNL1       -0.2688
      5 C          60.1458   89.8075    8.9234 C.3     1  UNL1        0.0741
      6 C          61.1236   89.5220   10.0245 C.3     1  UNL1        0.0370
      7 O          61.6354   85.5078   11.5945 O.2     1  UNL1       -0.2528
      8 C          62.6491   86.5425   11.9842 C.2     1  UNL1        0.3010
      9 N          62.6849   87.8626   11.2730 N.am    1  UNL1       -0.2905
     10 N          63.6269   86.2570   13.0854 N.am    1  UNL1       -0.2848
     11 H          63.3502   88.5417   11.5288 H       1  UNL1        0.1509
     12 H          64.2922   86.9361   13.3412 H       1  UNL1        0.1513
     13 C          63.5911   84.9369   13.7967 C.3     1  UNL1        0.1200
     14 C          63.4344   83.6671   13.0137 C.ar    1  UNL1       -0.0025
     15 C          62.4808   82.6089   13.4838 C.ar    1  UNL1       -0.0026
     16 C          62.3241   81.3391   12.7008 C.ar    1  UNL1       -0.0003
     17 C          63.1209   81.1275   11.4477 C.ar    1  UNL1       -0.0000
     18 C          64.0744   82.1857   10.9775 C.ar    1  UNL1       -0.0003
     19 C          64.2311   83.4555   11.7605 C.ar    1  UNL1       -0.0026
     20 C          63.7119   84.8865   15.2909 C.3     1  UNL1        0.1533
     21 N          63.4099   86.1067   16.1094 N.ar    1  UNL1       -0.2280
     22 C          62.8132   86.1198   17.4855 C.ar    1  UNL1        0.1973
     23 N          62.6860   87.5492   17.9220 N.ar    1  UNL1       -0.2007
     24 C          63.2041   88.4196   16.8156 C.ar    1  UNL1        0.2210
     25 N          63.6514   87.5281   15.6953 N.ar    1  UNL1       -0.1451
     26 C          58.7736   89.0045    6.8686 C.3     1  UNL1        0.1007
     27 C          59.0415   90.1154    5.8970 C.ar    1  UNL1        0.0129
     28 C          58.0712   91.1848    5.4910 C.ar    1  UNL1        0.0176
     29 C          58.7567   92.0823    4.5039 C.ar    1  UNL1        0.0799
     30 N          60.1509   91.5677    4.2998 N.ar    1  UNL1       -0.3038
     31 C          60.3268   90.3521    5.1608 C.ar    1  UNL1        0.0772
     32 C          61.1870   92.1639    3.3938 C.ar    1  UNL1        0.0640
     33 C          60.8407   93.3405    2.5303 C.ar    1  UNL1        0.0175
     34 C          61.8768   93.9367    1.6243 C.ar    1  UNL1        0.0053
     35 C          63.2593   93.3564    1.5818 C.ar    1  UNL1        0.0715
     36 C          63.6057   92.1799    2.4453 C.ar    1  UNL1        0.0053
     37 C          62.5696   91.5836    3.3513 C.ar    1  UNL1        0.0175
     38 C          64.2954   93.9527    0.6758 C.3     1  UNL1        0.4186
     39 F          65.3315   94.5490   -0.2303 F       1  UNL1       -0.1659
     40 F          65.1274   92.7119    0.8106 F       1  UNL1       -0.1659
     41 F          63.4634   95.1936    0.5409 F       1  UNL1       -0.1659
@<TRIPOS>BOND
     1     7     8    2
     2     8     9   am
     3     9     1    1
     4     1     2    1
     5     2     3    1
     6     3     4    1
     7     4    26    1
     8    26    27    1
     9    27    28   ar
    10    28    29   ar
    11    29    30   ar
    12    30    32    1
    13    32    33   ar
    14    33    34   ar
    15    34    35   ar
    16    35    38    1
    17    38    39    1
    18    38    40    1
    19    38    41    1
    20    35    36   ar
    21    36    37   ar
    22    30    31   ar
    23     4     5    1
    24     5     6    1
    25     8    10   am
    26    10    13    1
    27    13    20    1
    28    20    21    1
    29    21    22   ar
    30    22    23   ar
    31    23    24   ar
    32    24    25   ar
    33    13    14    1
    34    14    15   ar
    35    15    16   ar
    36    16    17   ar
    37    17    18   ar
    38    18    19   ar
    39     6     1    1
    40    25    21   ar
    41    19    14   ar
    42    31    27   ar
    43    37    32   ar
    44     9    11    1
    45    10    12    1
@<TRIPOS>MOLECULE
*****
 41 45 0 0 0
SMALL
GASTEIGER

@<TRIPOS>ATOM
      1 C          61.7540   88.2295   10.1588 C.3     1  UNL1        0.0758
      2 C          61.3290   89.6342    9.8487 C.3     1  UNL1        0.0370
      3 C          60.3312   89.8926    8.7591 C.3     1  UNL1        0.0741
      4 N          59.7582   88.7463    7.9795 N.3     1  UNL1       -0.2688
      5 C          60.1832   87.3416    8.2895 C.3     1  UNL1        0.0741
      6 C          61.1811   87.0832    9.3792 C.3     1  UNL1        0.0370
      7 O          62.1101   90.2245   12.3708 O.2     1  UNL1       -0.2528
      8 C          62.9299   88.9685   12.3545 C.2     1  UNL1        0.3010
      9 N          62.7519   87.9710   11.2485 N.am    1  UNL1       -0.2905
     10 N          63.9279   88.7100   13.4442 N.am    1  UNL1       -0.2848
     11 H          63.2900   87.1466   11.2378 H       1  UNL1        0.1509
     12 H          64.4659   87.8857   13.4335 H       1  UNL1        0.1513
     13 C          64.1059   89.7076   14.5502 C.3     1  UNL1        0.1200
     14 C          64.9015   90.9567   14.3125 C.ar    1  UNL1       -0.0025
     15 C          65.0077   91.5266   12.9290 C.ar    1  UNL1       -0.0026
     16 C          65.8033   92.7757   12.6914 C.ar    1  UNL1       -0.0003
     17 C          66.4929   93.4551   13.8372 C.ar    1  UNL1       -0.0000
     18 C          66.3868   92.8853   15.2207 C.ar    1  UNL1       -0.0003
     19 C          65.5911   91.6361   15.4584 C.ar    1  UNL1       -0.0026
     20 C          63.4883   89.4559   15.8938 C.3     1  UNL1        0.1533
     21 N          63.2973   88.0499   16.3800 N.ar    1  UNL1       -0.2280
     22 C          62.7293   87.6457   17.7081 C.ar    1  UNL1        0.1973
     23 N          62.7217   86.1471   17.7724 N.ar    1  UNL1       -0.2007
     24 C          63.2850   85.6250   16.4839 C.ar    1  UNL1        0.2210
     25 N          63.6408   86.8010   15.6234 N.ar    1  UNL1       -0.1451
     26 C          58.7603   89.0048    6.8897 C.3     1  UNL1        0.1007
     27 C          59.0054   90.0978    5.8922 C.ar    1  UNL1        0.0129
     28 C          57.9997   91.1090    5.4275 C.ar    1  UNL1        0.0176
     29 C          58.6719   92.0077    4.4322 C.ar    1  UNL1        0.0799
     30 N          60.0931   91.5519    4.2818 N.ar    1  UNL1       -0.3038
     31 C          60.2992   90.3715    5.1841 C.ar    1  UNL1        0.0772
     32 C          61.1267   92.1682    3.3864 C.ar    1  UNL1        0.0640
     33 C          60.7685   93.3430    2.5253 C.ar    1  UNL1        0.0175
     34 C          61.8021   93.9593    1.6298 C.ar    1  UNL1        0.0053
     35 C          63.1938   93.4009    1.5955 C.ar    1  UNL1        0.0715
     36 C          63.5520   92.2262    2.4566 C.ar    1  UNL1        0.0053
     37 C          62.5184   91.6098    3.3521 C.ar    1  UNL1        0.0175
     38 C          64.2273   94.0173    0.7000 C.3     1  UNL1        0.4186
     39 F          65.2608   94.6337   -0.1954 F       1  UNL1       -0.1659
     40 F          65.0405   92.7590    0.7725 F       1  UNL1       -0.1659
     41 F          63.4141   95.2757    0.6275 F       1  UNL1       -0.1659
@<TRIPOS>BOND
     1     7     8    2
     2     8     9   am
     3     9     1    1
     4     1     2    1
     5     2     3    1
     6     3     4    1
     7     4    26    1
     8    26    27    1
     9    27    28   ar
    10    28    29   ar
    11    29    30   ar
    12    30    32    1
    13    32    33   ar
    14    33    34   ar
    15    34    35   ar
    16    35    38    1
    17    38    39    1
    18    38    40    1
    19    38    41    1
    20    35    36   ar
    21    36    37   ar
    22    30    31   ar
    23     4     5    1
    24     5     6    1
    25     8    10   am
    26    10    13    1
    27    13    20    1
    28    20    21    1
    29    21    22   ar
    30    22    23   ar
    31    23    24   ar
    32    24    25   ar
    33    13    14    1
    34    14    15   ar
    35    15    16   ar
    36    16    17   ar
    37    17    18   ar
    38    18    19   ar
    39     6     1    1
    40    25    21   ar
    41    19    14   ar
    42    31    27   ar
    43    37    32   ar
    44     9    11    1
    45    10    12    1
@<TRIPOS>MOLECULE
*****
 41 45 0 0 0
SMALL
GASTEIGER

@<TRIPOS>ATOM
      1 C          59.5131   92.4026    4.1656 C.3     1  UNL1        0.0758
      2 C          60.6494   91.5373    4.6240 C.3     1  UNL1        0.0370
      3 C          60.3809   90.3469    5.4963 C.3     1  UNL1        0.0741
      4 N          58.9763   90.0219    5.9103 N.3     1  UNL1       -0.2688
      5 C          57.8401   90.8872    5.4519 C.3     1  UNL1        0.0741
      6 C          58.1085   92.0775    4.5795 C.3     1  UNL1        0.0370
      7 O          59.7040   92.0694    1.1903 O.2     1  UNL1       -0.2528
      8 C          59.8769   93.4264    1.8056 C.2     1  UNL1        0.3010
      9 N          59.7815   93.5930    3.2933 N.am    1  UNL1       -0.2905
     10 N          60.1453   94.6168    0.9333 N.am    1  UNL1       -0.2848
     11 H          59.8950   94.4837    3.6971 H       1  UNL1        0.1509
     12 H          60.2588   95.5075    1.3372 H       1  UNL1        0.1513
     13 C          60.2407   94.4502   -0.5543 C.3     1  UNL1        0.1200
     14 C          59.0288   94.0527   -1.3437 C.ar    1  UNL1       -0.0025
     15 C          57.6626   94.4580   -0.8754 C.ar    1  UNL1       -0.0026
     16 C          56.4506   94.0604   -1.6648 C.ar    1  UNL1       -0.0003
     17 C          56.6049   93.2577   -2.9225 C.ar    1  UNL1       -0.0000
     18 C          57.9710   92.8525   -3.3908 C.ar    1  UNL1       -0.0003
     19 C          59.1830   93.2500   -2.6014 C.ar    1  UNL1       -0.0026
     20 C          61.5481   94.6812   -1.2526 C.3     1  UNL1        0.1533
     21 N          62.8380   94.3882   -0.5454 N.ar    1  UNL1       -0.2280
     22 C          64.1386   95.1069   -0.7500 C.ar    1  UNL1        0.1973
     23 N          65.1583   94.4880    0.1594 N.ar    1  UNL1       -0.2007
     24 C          64.4879   93.3866    0.9261 C.ar    1  UNL1        0.2210
     25 N          63.0539   93.3249    0.4904 N.ar    1  UNL1       -0.1451
     26 C          58.7079   88.8315    6.7826 C.3     1  UNL1        0.1007
     27 C          59.6710   88.4690    7.8740 C.ar    1  UNL1        0.0129
     28 C          60.2299   89.4058    8.9036 C.ar    1  UNL1        0.0176
     29 C          61.1486   88.6219    9.7933 C.ar    1  UNL1        0.0799
     30 N          61.1574   87.2007    9.3136 N.ar    1  UNL1       -0.3038
     31 C          60.2442   87.1062    8.1274 C.ar    1  UNL1        0.0772
     32 C          61.9418   86.0722    9.9145 C.ar    1  UNL1        0.0640
     33 C          61.8298   85.7785   11.3812 C.ar    1  UNL1        0.0175
     34 C          62.6141   84.6499   11.9821 C.ar    1  UNL1        0.0053
     35 C          63.5105   83.8151   11.1165 C.ar    1  UNL1        0.0715
     36 C          63.6225   84.1087    9.6498 C.ar    1  UNL1        0.0053
     37 C          62.8382   85.2373    9.0488 C.ar    1  UNL1        0.0175
     38 C          64.2948   82.6866   11.7174 C.3     1  UNL1        0.4186
     39 F          65.0792   81.5580   12.3185 F       1  UNL1       -0.1659
     40 F          64.0974   81.8831   10.4663 F       1  UNL1       -0.1659
     41 F          64.4922   83.4900   12.9687 F       1  UNL1       -0.1659
@<TRIPOS>BOND
     1     7     8    2
     2     8     9   am
     3     9     1    1
     4     1     2    1
     5     2     3    1
     6     3     4    1
     7     4    26    1
     8    26    27    1
     9    27    28   ar
    10    28    29   ar
    11    29    30   ar
    12    30    32    1
    13    32    33   ar
    14    33    34   ar
    15    34    35   ar
    16    35    38    1
    17    38    39    1
    18    38    40    1
    19    38    41    1
    20    35    36   ar
    21    36    37   ar
    22    30    31   ar
    23     4     5    1
    24     5     6    1
    25     8    10   am
    26    10    13    1
    27    13    20    1
    28    20    21    1
    29    21    22   ar
    30    22    23   ar
    31    23    24   ar
    32    24    25   ar
    33    13    14    1
    34    14    15   ar
    35    15    16   ar
    36    16    17   ar
    37    17    18   ar
    38    18    19   ar
    39     6     1    1
    40    25    21   ar
    41    19    14   ar
    42    31    27   ar
    43    37    32   ar
    44     9    11    1
    45    10    12    1
@<TRIPOS>MOLECULE
*****
 41 45 0 0 0
SMALL
GASTEIGER

@<TRIPOS>ATOM
      1 C          61.8932   86.3994    8.8387 C.3     1  UNL1        0.0758
      2 C          61.7935   87.8033    9.3574 C.3     1  UNL1        0.0370
      3 C          60.6944   88.7040    8.8771 C.3     1  UNL1        0.0741
      4 N          59.6950   88.2008    7.8781 N.3     1  UNL1       -0.2688
      5 C          59.7947   86.7969    7.3594 C.3     1  UNL1        0.0741
      6 C          60.8938   85.8962    7.8397 C.3     1  UNL1        0.0370
      7 O          61.8584   85.3593   11.6524 O.2     1  UNL1       -0.2528
      8 C          62.9749   84.9786   10.7259 C.2     1  UNL1        0.3010
      9 N          62.9923   85.4987    9.3190 N.am    1  UNL1       -0.2905
     10 N          64.0740   84.0778   11.2062 N.am    1  UNL1       -0.2848
     11 H          63.7251   85.2488    8.7109 H       1  UNL1        0.1509
     12 H          64.8068   83.8280   10.5980 H       1  UNL1        0.1513
     13 C          64.0566   83.5578   12.6130 C.3     1  UNL1        0.1200
     14 C          63.1784   82.3961   12.9723 C.ar    1  UNL1       -0.0025
     15 C          63.3473   81.0822   12.2683 C.ar    1  UNL1       -0.0026
     16 C          62.4691   79.9205   12.6276 C.ar    1  UNL1       -0.0003
     17 C          61.4220   80.0725   13.6908 C.ar    1  UNL1       -0.0000
     18 C          61.2531   81.3863   14.3947 C.ar    1  UNL1       -0.0003
     19 C          62.1313   82.5481   14.0355 C.ar    1  UNL1       -0.0026
     20 C          64.9174   84.1994   13.6605 C.3     1  UNL1        0.1533
     21 N          64.3265   85.2039   14.6048 N.ar    1  UNL1       -0.2280
     22 C          64.3335   86.6931   14.4256 C.ar    1  UNL1        0.1973
     23 N          63.6361   87.3051   15.6042 N.ar    1  UNL1       -0.2007
     24 C          63.1980   86.1941   16.5118 C.ar    1  UNL1        0.2210
     25 N          63.6247   84.8955   15.8942 N.ar    1  UNL1       -0.1451
     26 C          58.5959   89.1016    7.3978 C.3     1  UNL1        0.1007
     27 C          58.8493   90.0592    6.2715 C.ar    1  UNL1        0.0129
     28 C          57.8206   90.9146    5.5932 C.ar    1  UNL1        0.0176
     29 C          58.5115   91.7137    4.5282 C.ar    1  UNL1        0.0799
     30 N          59.9672   91.3522    4.5483 N.ar    1  UNL1       -0.3038
     31 C          60.1759   90.3297    5.6258 C.ar    1  UNL1        0.0772
     32 C          61.0278   91.9144    3.6489 C.ar    1  UNL1        0.0640
     33 C          62.4029   91.3155    3.6453 C.ar    1  UNL1        0.0175
     34 C          63.4635   91.8778    2.7459 C.ar    1  UNL1        0.0053
     35 C          63.1490   93.0390    1.8502 C.ar    1  UNL1        0.0715
     36 C          61.7738   93.6380    1.8537 C.ar    1  UNL1        0.0053
     37 C          60.7132   93.0757    2.7531 C.ar    1  UNL1        0.0175
     38 C          64.2096   93.6013    0.9508 C.3     1  UNL1        0.4186
     39 F          65.2703   94.1635    0.0514 F       1  UNL1       -0.1659
     40 F          63.4082   94.8592    0.7921 F       1  UNL1       -0.1659
     41 F          65.0111   92.3432    1.1094 F       1  UNL1       -0.1659
@<TRIPOS>BOND
     1     7     8    2
     2     8     9   am
     3     9     1    1
     4     1     2    1
     5     2     3    1
     6     3     4    1
     7     4    26    1
     8    26    27    1
     9    27    28   ar
    10    28    29   ar
    11    29    30   ar
    12    30    32    1
    13    32    33   ar
    14    33    34   ar
    15    34    35   ar
    16    35    38    1
    17    38    39    1
    18    38    40    1
    19    38    41    1
    20    35    36   ar
    21    36    37   ar
    22    30    31   ar
    23     4     5    1
    24     5     6    1
    25     8    10   am
    26    10    13    1
    27    13    20    1
    28    20    21    1
    29    21    22   ar
    30    22    23   ar
    31    23    24   ar
    32    24    25   ar
    33    13    14    1
    34    14    15   ar
    35    15    16   ar
    36    16    17   ar
    37    17    18   ar
    38    18    19   ar
    39     6     1    1
    40    25    21   ar
    41    19    14   ar
    42    31    27   ar
    43    37    32   ar
    44     9    11    1
    45    10    12    1
@<TRIPOS>MOLECULE
*****
 41 45 0 0 0
SMALL
GASTEIGER

@<TRIPOS>ATOM
      1 C          59.6082   92.5201    4.2046 C.3     1  UNL1        0.0758
      2 C          60.7364   91.6007    4.5678 C.3     1  UNL1        0.0370
      3 C          60.4682   90.3695    5.3814 C.3     1  UNL1        0.0741
      4 N          59.0718   90.0576    5.8318 N.3     1  UNL1       -0.2688
      5 C          57.9437   90.9770    5.4687 C.3     1  UNL1        0.0741
      6 C          58.2119   92.2082    4.6551 C.3     1  UNL1        0.0370
      7 O          59.5889   92.3719    1.2084 O.2     1  UNL1       -0.2528
      8 C          59.8668   93.6773    1.8929 C.2     1  UNL1        0.3010
      9 N          59.8764   93.7515    3.3910 N.am    1  UNL1       -0.2905
     10 N          60.1349   94.9087    1.0793 N.am    1  UNL1       -0.2848
     11 H          60.0588   94.6083    3.8403 H       1  UNL1        0.1509
     12 H          60.3173   95.7655    1.5285 H       1  UNL1        0.1513
     13 C          60.1253   94.8345   -0.4188 C.3     1  UNL1        0.1200
     14 C          61.3282   94.3193   -1.1520 C.ar    1  UNL1       -0.0025
     15 C          62.6669   94.2986   -0.4755 C.ar    1  UNL1       -0.0026
     16 C          63.8698   93.7834   -1.2086 C.ar    1  UNL1       -0.0003
     17 C          63.7340   93.2888   -2.6182 C.ar    1  UNL1       -0.0000
     18 C          62.3954   93.3095   -3.2947 C.ar    1  UNL1       -0.0003
     19 C          61.1925   93.8247   -2.5616 C.ar    1  UNL1       -0.0026
     20 C          58.9127   95.2757   -1.1838 C.3     1  UNL1        0.1533
     21 N          57.7533   94.3398   -1.3563 N.ar    1  UNL1       -0.2280
     22 C          57.7582   92.8676   -1.0688 C.ar    1  UNL1        0.1973
     23 N          56.3934   92.3297   -1.3814 N.ar    1  UNL1       -0.2007
     24 C          55.5448   93.4695   -1.8621 C.ar    1  UNL1        0.2210
     25 N          56.3853   94.7117   -1.8466 N.ar    1  UNL1       -0.1451
     26 C          58.8037   88.8262    6.6455 C.3     1  UNL1        0.1007
     27 C          59.7138   88.4652    7.7817 C.ar    1  UNL1        0.0129
     28 C          60.2000   89.3967    8.8522 C.ar    1  UNL1        0.0176
     29 C          61.0843   88.6164    9.7791 C.ar    1  UNL1        0.0799
     30 N          61.1447   87.2026    9.2815 N.ar    1  UNL1       -0.3038
     31 C          60.2977   87.1091    8.0471 C.ar    1  UNL1        0.0772
     32 C          61.9165   86.0795    9.9084 C.ar    1  UNL1        0.0640
     33 C          61.8005   85.8201   11.3811 C.ar    1  UNL1        0.0175
     34 C          62.5723   84.6970   12.0079 C.ar    1  UNL1        0.0053
     35 C          63.4602   83.8334   11.1620 C.ar    1  UNL1        0.0715
     36 C          63.5763   84.0928    9.6892 C.ar    1  UNL1        0.0053
     37 C          62.8044   85.2159    9.0624 C.ar    1  UNL1        0.0175
     38 C          64.2320   82.7103   11.7888 C.3     1  UNL1        0.4186
     39 F          65.0039   81.5872   12.4157 F       1  UNL1       -0.1659
     40 F          64.6887   82.2662   10.4308 F       1  UNL1       -0.1659
     41 F          63.7754   83.1544   13.1469 F       1  UNL1       -0.1659
@<TRIPOS>BOND
     1     7     8    2
     2     8     9   am
     3     9     1    1
     4     1     2    1
     5     2     3    1
     6     3     4    1
     7     4    26    1
     8    26    27    1
     9    27    28   ar
    10    28    29   ar
    11    29    30   ar
    12    30    32    1
    13    32    33   ar
    14    33    34   ar
    15    34    35   ar
    16    35    38    1
    17    38    39    1
    18    38    40    1
    19    38    41    1
    20    35    36   ar
    21    36    37   ar
    22    30    31   ar
    23     4     5    1
    24     5     6    1
    25     8    10   am
    26    10    13    1
    27    13    20    1
    28    20    21    1
    29    21    22   ar
    30    22    23   ar
    31    23    24   ar
    32    24    25   ar
    33    13    14    1
    34    14    15   ar
    35    15    16   ar
    36    16    17   ar
    37    17    18   ar
    38    18    19   ar
    39     6     1    1
    40    25    21   ar
    41    19    14   ar
    42    31    27   ar
    43    37    32   ar
    44     9    11    1
    45    10    12    1
@<TRIPOS>MOLECULE
*****
 41 45 0 0 0
SMALL
GASTEIGER

@<TRIPOS>ATOM
      1 C          59.0635   90.0659    5.9086 C.3     1  UNL1        0.0758
      2 C          60.4583   90.3507    5.4361 C.3     1  UNL1        0.0370
      3 C          60.7094   91.4728    4.4730 C.3     1  UNL1        0.0741
      4 N          59.5657   92.3102    3.9823 N.3     1  UNL1       -0.2688
      5 C          58.1709   92.0254    4.4548 C.3     1  UNL1        0.0741
      6 C          57.9198   90.9033    5.4180 C.3     1  UNL1        0.0370
      7 O          60.9607   89.5881    8.1828 O.2     1  UNL1       -0.2528
      8 C          59.7609   88.7048    8.0088 C.2     1  UNL1        0.3010
      9 N          58.8123   88.9437    6.8718 N.am    1  UNL1       -0.2905
     10 N          59.5097   87.5826    8.9720 N.am    1  UNL1       -0.2848
     11 H          58.0248   88.3640    6.7576 H       1  UNL1        0.1509
     12 H          58.7222   87.0029    8.8578 H       1  UNL1        0.1513
     13 C          60.4583   87.3437   10.1091 C.3     1  UNL1        0.1200
     14 C          61.4832   86.2526   10.0142 C.ar    1  UNL1       -0.0025
     15 C          62.1495   85.9615    8.7021 C.ar    1  UNL1       -0.0026
     16 C          63.1744   84.8704    8.6072 C.ar    1  UNL1       -0.0003
     17 C          63.5330   84.0703    9.8242 C.ar    1  UNL1       -0.0000
     18 C          62.8668   84.3614   11.1362 C.ar    1  UNL1       -0.0003
     19 C          61.8419   85.4525   11.2312 C.ar    1  UNL1       -0.0026
     20 C          60.3821   88.1959   11.3411 C.3     1  UNL1        0.1533
     21 N          61.5234   89.1011   11.6988 N.ar    1  UNL1       -0.2280
     22 C          61.7173   90.5082   11.2165 C.ar    1  UNL1        0.1973
     23 N          62.9849   91.0349   11.8211 N.ar    1  UNL1       -0.2007
     24 C          63.5746   89.9534   12.6771 C.ar    1  UNL1        0.2210
     25 N          62.6713   88.7583   12.6015 N.ar    1  UNL1       -0.1451
     26 C          59.8169   93.4324    3.0192 C.3     1  UNL1        0.1007
     27 C          59.8943   93.1543    1.5472 C.ar    1  UNL1        0.0129
     28 C          61.1182   92.7238    0.7945 C.ar    1  UNL1        0.0176
     29 C          60.7417   92.5612   -0.6484 C.ar    1  UNL1        0.0799
     30 N          59.2850   92.8913   -0.7874 N.ar    1  UNL1       -0.3038
     31 C          58.7613   93.2578    0.5696 C.ar    1  UNL1        0.0772
     32 C          58.4914   92.8603   -2.0599 C.ar    1  UNL1        0.0640
     33 C          57.1190   92.2552   -2.0733 C.ar    1  UNL1        0.0175
     34 C          56.3255   92.2241   -3.3458 C.ar    1  UNL1        0.0053
     35 C          56.9043   92.7982   -4.6049 C.ar    1  UNL1        0.0715
     36 C          58.2768   93.4033   -4.5915 C.ar    1  UNL1        0.0053
     37 C          59.0703   93.4343   -3.3190 C.ar    1  UNL1        0.0175
     38 C          56.1108   92.7671   -5.8774 C.3     1  UNL1        0.4186
     39 F          55.3171   92.7360   -7.1499 F       1  UNL1       -0.1659
     40 F          56.7677   94.0416   -6.3181 F       1  UNL1       -0.1659
     41 F          55.4538   91.4926   -5.4366 F       1  UNL1       -0.1659
@<TRIPOS>BOND
     1     7     8    2
     2     8     9   am
     3     9     1    1
     4     1     2    1
     5     2     3    1
     6     3     4    1
     7     4    26    1
     8    26    27    1
     9    27    28   ar
    10    28    29   ar
    11    29    30   ar
    12    30    32    1
    13    32    33   ar
    14    33    34   ar
    15    34    35   ar
    16    35    38    1
    17    38    39    1
    18    38    40    1
    19    38    41    1
    20    35    36   ar
    21    36    37   ar
    22    30    31   ar
    23     4     5    1
    24     5     6    1
    25     8    10   am
    26    10    13    1
    27    13    20    1
    28    20    21    1
    29    21    22   ar
    30    22    23   ar
    31    23    24   ar
    32    24    25   ar
    33    13    14    1
    34    14    15   ar
    35    15    16   ar
    36    16    17   ar
    37    17    18   ar
    38    18    19   ar
    39     6     1    1
    40    25    21   ar
    41    19    14   ar
    42    31    27   ar
    43    37    32   ar
    44     9    11    1
    45    10    12    1
@<TRIPOS>MOLECULE
*****
 41 45 0 0 0
SMALL
GASTEIGER

@<TRIPOS>ATOM
      1 C          61.9917   88.4965    9.9820 C.3     1  UNL1        0.0758
      2 C          61.3695   89.8594    9.9085 C.3     1  UNL1        0.0370
      3 C          60.2810   90.1342    8.9137 C.3     1  UNL1        0.0741
      4 N          59.8146   89.0461    7.9926 N.3     1  UNL1       -0.2688
      5 C          60.4368   87.6832    8.0661 C.3     1  UNL1        0.0741
      6 C          61.5253   87.4084    9.0608 C.3     1  UNL1        0.0370
      7 O          61.7368   89.4960   12.7991 O.2     1  UNL1       -0.2528
      8 C          62.9529   88.7214   12.3853 C.2     1  UNL1        0.3010
      9 N          63.0803   88.2217   10.9768 N.am    1  UNL1       -0.2905
     10 N          64.0415   88.4466   13.3800 N.am    1  UNL1       -0.2848
     11 H          63.8784   87.7133   10.7051 H       1  UNL1        0.1509
     12 H          64.8396   87.9382   13.1084 H       1  UNL1        0.1513
     13 C          63.9140   88.9463   14.7885 C.3     1  UNL1        0.1200
     14 C          63.5658   87.9938   15.8936 C.ar    1  UNL1       -0.0025
     15 C          63.7494   86.5180   15.6974 C.ar    1  UNL1       -0.0026
     16 C          63.4012   85.5654   16.8026 C.ar    1  UNL1       -0.0003
     17 C          62.8694   86.0885   18.1039 C.ar    1  UNL1       -0.0000
     18 C          62.6858   87.5642   18.3001 C.ar    1  UNL1       -0.0003
     19 C          63.0340   88.5169   17.1950 C.ar    1  UNL1       -0.0026
     20 C          64.1348   90.3986   15.0919 C.3     1  UNL1        0.1533
     21 N          64.9639   91.2403   14.1678 N.ar    1  UNL1       -0.2280
     22 C          66.4131   91.5824   14.3485 C.ar    1  UNL1        0.1973
     23 N          66.8343   92.4412   13.1931 N.ar    1  UNL1       -0.2007
     24 C          65.6453   92.6299   12.2982 C.ar    1  UNL1        0.2210
     25 N          64.4894   91.8877   12.9006 N.ar    1  UNL1       -0.1451
     26 C          58.7260   89.3209    6.9978 C.3     1  UNL1        0.1007
     27 C          58.9490   90.3159    5.8977 C.ar    1  UNL1        0.0129
     28 C          57.9020   91.1910    5.2748 C.ar    1  UNL1        0.0176
     29 C          58.5640   92.0264    4.2195 C.ar    1  UNL1        0.0799
     30 N          60.0203   91.6676    4.1901 N.ar    1  UNL1       -0.3038
     31 C          60.2581   90.6104    5.2273 C.ar    1  UNL1        0.0772
     32 C          61.0565   92.2616    3.2828 C.ar    1  UNL1        0.0640
     33 C          60.7072   93.4290    2.4082 C.ar    1  UNL1        0.0175
     34 C          61.7435   94.0230    1.5009 C.ar    1  UNL1        0.0053
     35 C          63.1291   93.4496    1.4682 C.ar    1  UNL1        0.0715
     36 C          63.4785   92.2822    2.3428 C.ar    1  UNL1        0.0053
     37 C          62.4422   91.6881    3.2501 C.ar    1  UNL1        0.0175
     38 C          64.1654   94.0436    0.5609 C.3     1  UNL1        0.4186
     39 F          65.2018   94.6376   -0.3464 F       1  UNL1       -0.1659
     40 F          63.2993   95.2522    0.3629 F       1  UNL1       -0.1659
     41 F          65.0316   92.8350    0.7588 F       1  UNL1       -0.1659
@<TRIPOS>BOND
     1     7     8    2
     2     8     9   am
     3     9     1    1
     4     1     2    1
     5     2     3    1
     6     3     4    1
     7     4    26    1
     8    26    27    1
     9    27    28   ar
    10    28    29   ar
    11    29    30   ar
    12    30    32    1
    13    32    33   ar
    14    33    34   ar
    15    34    35   ar
    16    35    38    1
    17    38    39    1
    18    38    40    1
    19    38    41    1
    20    35    36   ar
    21    36    37   ar
    22    30    31   ar
    23     4     5    1
    24     5     6    1
    25     8    10   am
    26    10    13    1
    27    13    20    1
    28    20    21    1
    29    21    22   ar
    30    22    23   ar
    31    23    24   ar
    32    24    25   ar
    33    13    14    1
    34    14    15   ar
    35    15    16   ar
    36    16    17   ar
    37    17    18   ar
    38    18    19   ar
    39     6     1    1
    40    25    21   ar
    41    19    14   ar
    42    31    27   ar
    43    37    32   ar
    44     9    11    1
    45    10    12    1
@<TRIPOS>MOLECULE
*****
 41 45 0 0 0
SMALL
GASTEIGER

@<TRIPOS>ATOM
      1 C          59.1003   90.1099    5.8147 C.3     1  UNL1        0.0758
      2 C          60.4837   90.4484    5.3442 C.3     1  UNL1        0.0370
      3 C          60.7039   91.6365    4.4556 C.3     1  UNL1        0.0741
      4 N          59.5406   92.4861    4.0374 N.3     1  UNL1       -0.2688
      5 C          58.1571   92.1476    4.5079 C.3     1  UNL1        0.0741
      6 C          57.9370   90.9595    5.3966 C.3     1  UNL1        0.0370
      7 O          60.8846   89.6572    8.1836 O.2     1  UNL1       -0.2528
      8 C          59.7722   88.6953    7.8879 C.2     1  UNL1        0.3010
      9 N          58.8801   88.9216    6.7035 N.am    1  UNL1       -0.2905
     10 N          59.5520   87.5071    8.7766 N.am    1  UNL1       -0.2848
     11 H          58.1500   88.2903    6.5094 H       1  UNL1        0.1509
     12 H          58.8219   86.8758    8.5825 H       1  UNL1        0.1513
     13 C          60.4441   87.2808    9.9610 C.3     1  UNL1        0.1200
     14 C          61.4810   86.1977    9.9228 C.ar    1  UNL1       -0.0025
     15 C          62.2072   85.8993    8.6446 C.ar    1  UNL1       -0.0026
     16 C          63.2441   84.8162    8.6063 C.ar    1  UNL1       -0.0003
     17 C          63.5549   84.0313    9.8462 C.ar    1  UNL1       -0.0000
     18 C          62.8288   84.3296   11.1244 C.ar    1  UNL1       -0.0003
     19 C          61.7918   85.4128   11.1627 C.ar    1  UNL1       -0.0026
     20 C          60.2993   88.1377   11.1836 C.3     1  UNL1        0.1533
     21 N          61.4257   89.0315   11.6107 N.ar    1  UNL1       -0.2280
     22 C          61.5651   90.4897   11.2879 C.ar    1  UNL1        0.1973
     23 N          62.8359   90.9834   11.9134 N.ar    1  UNL1       -0.2007
     24 C          63.4820   89.8303   12.6227 C.ar    1  UNL1        0.2210
     25 N          62.6104   88.6240   12.4357 N.ar    1  UNL1       -0.1451
     26 C          59.7608   93.6744    3.1487 C.3     1  UNL1        0.1007
     27 C          60.0334   93.4773    1.6869 C.ar    1  UNL1        0.0129
     28 C          59.1639   92.7284    0.7210 C.ar    1  UNL1        0.0176
     29 C          59.8164   92.7828   -0.6285 C.ar    1  UNL1        0.0799
     30 N          61.0893   93.5654   -0.4967 N.ar    1  UNL1       -0.3038
     31 C          61.2233   93.9947    0.9343 C.ar    1  UNL1        0.0772
     32 C          62.0580   93.8661   -1.6018 C.ar    1  UNL1        0.0640
     33 C          61.7027   93.5355   -3.0210 C.ar    1  UNL1        0.0175
     34 C          62.6714   93.8361   -4.1262 C.ar    1  UNL1        0.0053
     35 C          63.9953   94.4673   -3.8120 C.ar    1  UNL1        0.0715
     36 C          64.3506   94.7979   -2.3927 C.ar    1  UNL1        0.0053
     37 C          63.3819   94.4973   -1.2876 C.ar    1  UNL1        0.0175
     38 C          64.9639   94.7679   -4.9171 C.3     1  UNL1        0.4186
     39 F          65.9326   95.0686   -6.0222 F       1  UNL1       -0.1659
     40 F          65.3305   93.3152   -4.9910 F       1  UNL1       -0.1659
     41 F          64.5974   96.2206   -4.8433 F       1  UNL1       -0.1659
@<TRIPOS>BOND
     1     7     8    2
     2     8     9   am
     3     9     1    1
     4     1     2    1
     5     2     3    1
     6     3     4    1
     7     4    26    1
     8    26    27    1
     9    27    28   ar
    10    28    29   ar
    11    29    30   ar
    12    30    32    1
    13    32    33   ar
    14    33    34   ar
    15    34    35   ar
    16    35    38    1
    17    38    39    1
    18    38    40    1
    19    38    41    1
    20    35    36   ar
    21    36    37   ar
    22    30    31   ar
    23     4     5    1
    24     5     6    1
    25     8    10   am
    26    10    13    1
    27    13    20    1
    28    20    21    1
    29    21    22   ar
    30    22    23   ar
    31    23    24   ar
    32    24    25   ar
    33    13    14    1
    34    14    15   ar
    35    15    16   ar
    36    16    17   ar
    37    17    18   ar
    38    18    19   ar
    39     6     1    1
    40    25    21   ar
    41    19    14   ar
    42    31    27   ar
    43    37    32   ar
    44     9    11    1
    45    10    12    1
@<TRIPOS>MOLECULE
*****
 41 45 0 0 0
SMALL
GASTEIGER

@<TRIPOS>ATOM
      1 C          61.8216   86.7209    9.2070 C.3     1  UNL1        0.0758
      2 C          61.5448   88.1594    9.5298 C.3     1  UNL1        0.0370
      3 C          60.4413   88.8880    8.8218 C.3     1  UNL1        0.0741
      4 N          59.6146   88.1782    7.7910 N.3     1  UNL1       -0.2688
      5 C          59.8914   86.7397    7.4682 C.3     1  UNL1        0.0741
      6 C          60.9949   86.0111    8.1762 C.3     1  UNL1        0.0370
      7 O          61.4426   85.8128   12.0411 O.2     1  UNL1       -0.2528
      8 C          62.7357   85.5382   11.3321 C.2     1  UNL1        0.3010
      9 N          62.9252   85.9922    9.9151 N.am    1  UNL1       -0.2905
     10 N          63.8392   84.8095   12.0401 N.am    1  UNL1       -0.2848
     11 H          63.7738   85.8120    9.4497 H       1  UNL1        0.1509
     12 H          64.6879   84.6293   11.5748 H       1  UNL1        0.1513
     13 C          63.6497   84.3554   13.4571 C.3     1  UNL1        0.1200
     14 C          63.5257   85.3663   14.5583 C.ar    1  UNL1       -0.0025
     15 C          62.8395   84.9983   15.8404 C.ar    1  UNL1       -0.0026
     16 C          62.7154   86.0092   16.9416 C.ar    1  UNL1       -0.0003
     17 C          63.2776   87.3881   16.7608 C.ar    1  UNL1       -0.0000
     18 C          63.9638   87.7561   15.4788 C.ar    1  UNL1       -0.0003
     19 C          64.0878   86.7452   14.3775 C.ar    1  UNL1       -0.0026
     20 C          63.5843   82.8905   13.7728 C.3     1  UNL1        0.1533
     21 N          63.3349   81.8974   12.6767 N.ar    1  UNL1       -0.2280
     22 C          62.7047   80.5458   12.8382 C.ar    1  UNL1        0.1973
     23 N          62.6523   79.8946   11.4879 N.ar    1  UNL1       -0.2007
     24 C          63.2500   80.8438   10.4919 C.ar    1  UNL1        0.2210
     25 N          63.6719   82.0816   11.2267 N.ar    1  UNL1       -0.1451
     26 C          58.5110   88.9069    7.0829 C.3     1  UNL1        0.1007
     27 C          58.8386   89.9880    6.0962 C.ar    1  UNL1        0.0129
     28 C          57.9151   91.0816    5.6476 C.ar    1  UNL1        0.0176
     29 C          58.6529   91.9349    4.6590 C.ar    1  UNL1        0.0799
     30 N          60.0324   91.3687    4.4964 N.ar    1  UNL1       -0.3038
     31 C          60.1472   90.1655    5.3847 C.ar    1  UNL1        0.0772
     32 C          61.1082   91.9106    3.6026 C.ar    1  UNL1        0.0640
     33 C          60.8080   93.0482    2.6723 C.ar    1  UNL1        0.0175
     34 C          61.8838   93.5901    1.7785 C.ar    1  UNL1        0.0053
     35 C          63.2599   92.9944    1.8150 C.ar    1  UNL1        0.0715
     36 C          63.5602   91.8568    2.7454 C.ar    1  UNL1        0.0053
     37 C          62.4844   91.3149    3.6392 C.ar    1  UNL1        0.0175
     38 C          64.3357   93.5363    0.9212 C.3     1  UNL1        0.4186
     39 F          65.4115   94.0782    0.0273 F       1  UNL1       -0.1659
     40 F          65.1533   93.8993    2.1253 F       1  UNL1       -0.1659
     41 F          63.5181   93.1734   -0.2830 F       1  UNL1       -0.1659
@<TRIPOS>BOND
     1     7     8    2
     2     8     9   am
     3     9     1    1
     4     1     2    1
     5     2     3    1
     6     3     4    1
     7     4    26    1
     8    26    27    1
     9    27    28   ar
    10    28    29   ar
    11    29    30   ar
    12    30    32    1
    13    32    33   ar
    14    33    34   ar
    15    34    35   ar
    16    35    38    1
    17    38    39    1
    18    38    40    1
    19    38    41    1
    20    35    36   ar
    21    36    37   ar
    22    30    31   ar
    23     4     5    1
    24     5     6    1
    25     8    10   am
    26    10    13    1
    27    13    20    1
    28    20    21    1
    29    21    22   ar
    30    22    23   ar
    31    23    24   ar
    32    24    25   ar
    33    13    14    1
    34    14    15   ar
    35    15    16   ar
    36    16    17   ar
    37    17    18   ar
    38    18    19   ar
    39     6     1    1
    40    25    21   ar
    41    19    14   ar
    42    31    27   ar
    43    37    32   ar
    44     9    11    1
    45    10    12    1
