@<TRIPOS>MOLECULE
*****
 54 60 0 0 0
SMALL
GASTEIGER

@<TRIPOS>ATOM
      1 C          61.1326   88.5065    9.0719 C.2     1  UNL1        0.1542
      2 N          60.3707   89.6045    8.3909 N.2     1  UNL1       -0.0655
      3 C          59.4952   89.2916    7.2137 C.cat   1  UNL1        0.4642
      4 N          59.3816   87.8806    6.7176 N.2     1  UNL1        0.0296
      5 C          60.1436   86.7826    7.3987 C.2     1  UNL1        0.3685
      6 N          60.2291   85.3081    7.1365 N.2     1  UNL1       -0.0340
      7 C          61.1574   84.7098    8.1515 C.2     1  UNL1        0.2321
      8 C          61.6456   85.8145    9.0411 C.2     1  UNL1        0.0439
      9 C          61.0191   87.0955    8.5758 C.3     1  UNL1        0.1946
     10 N          64.9785   90.5372   13.8351 N.am    1  UNL1       -0.2526
     11 C          64.7645   89.1498   14.3633 C.3     1  UNL1        0.1229
     12 C          63.8993   88.1848   13.6079 C.3     1  UNL1        0.1280
     13 N          63.2482   88.6075   12.3245 N.ar    1  UNL1       -0.3206
     14 C          62.3495   87.8810   11.3682 C.ar    1  UNL1        0.0787
     15 C          62.0080   88.8195   10.2490 C.ar    1  UNL1        0.0498
     16 C          62.6957   90.1261   10.5136 C.ar    1  UNL1        0.0259
     17 C          63.4622   89.9951   11.7963 C.ar    1  UNL1        0.1147
     18 C          64.3273   90.9599   12.5517 C.2     1  UNL1        0.2687
     19 O          64.5413   92.3475   12.0235 O.2     1  UNL1       -0.2680
     20 C          67.2119   91.8420   14.0785 C.ar    1  UNL1       -0.0088
     21 C          68.0771   92.8070   14.8339 C.ar    1  UNL1       -0.0031
     22 C          67.5738   93.4320   16.1012 C.ar    1  UNL1       -0.0006
     23 C          66.2054   93.0921   16.6131 C.ar    1  UNL1       -0.0031
     24 C          65.3404   92.1272   15.8578 C.ar    1  UNL1       -0.0088
     25 C          65.8436   91.5022   14.5905 C.ar    1  UNL1        0.0462
     26 C          67.8994   92.0570   11.5822 C.3     1  UNL1        0.0051
     27 C          67.7152   91.2170   12.8113 C.3     1  UNL1        0.0276
     28 C          63.9720   91.7874   16.3698 C.3     1  UNL1        0.0276
     29 C          63.6673   90.3914   16.8264 C.3     1  UNL1        0.0051
     30 N          58.7333   90.3896    6.5327 N.pl3   1  UNL1       -0.1896
     31 H          57.8303   90.6285    6.8438 H       1  UNL1        0.2524
     32 C          59.3473   91.1238    5.3777 C.ar    1  UNL1        0.1435
     33 C          60.7881   90.8986    5.0265 C.ar    1  UNL1        0.0356
     34 C          61.4021   91.6328    3.8715 C.ar    1  UNL1        0.0174
     35 C          60.5753   92.5922    3.0677 C.ar    1  UNL1        0.0511
     36 C          59.1345   92.8174    3.4190 C.ar    1  UNL1        0.0541
     37 C          58.5205   92.0832    4.5740 C.ar    1  UNL1        0.1684
     38 N          61.1893   93.3264    1.9127 N.pl3   1  UNL1       -0.3074
     39 C          62.5047   92.8748    1.3510 C.3     1  UNL1        0.0913
     40 C          63.1188   93.6089    0.1960 C.3     1  UNL1        0.0305
     41 C          62.4173   94.7947   -0.3972 C.3     1  UNL1        0.0801
     42 C          61.1018   95.2463    0.1646 C.3     1  UNL1        0.0305
     43 C          60.4878   94.5121    1.3196 C.3     1  UNL1        0.0913
     44 C          63.0312   95.5289   -1.5522 C.2     1  UNL1        0.2254
     45 O          63.9196   96.7115   -1.3024 O.2     1  UNL1       -0.2749
     46 N          62.7568   95.0806   -2.9570 N.am    1  UNL1       -0.2764
     47 C          63.3707   95.8147   -4.1121 C.3     1  UNL1        0.1149
     48 C          61.8685   93.8981   -3.2069 C.3     1  UNL1        0.1107
     49 C          60.3784   94.0694   -3.2230 C.3     1  UNL1        0.0939
     50 N          59.6682   94.3378   -4.5167 N.3     1  UNL1       -0.2688
     51 C          60.4572   94.5892   -5.7673 C.3     1  UNL1        0.0897
     52 C          58.1689   94.3547   -4.5597 C.3     1  UNL1        0.0897
     53 O          57.0797   92.3083    4.9252 O.3     1  UNL1       -0.4687
     54 C          56.1262   91.1509    4.9593 C.3     1  UNL1        0.2526
@<TRIPOS>BOND
     1    26    27    1
     2    27    20    1
     3    20    21   ar
     4    21    22   ar
     5    22    23   ar
     6    23    24   ar
     7    24    28    1
     8    28    29    1
     9    24    25   ar
    10    25    10    1
    11    10    11    1
    12    11    12    1
    13    12    13    1
    14    13    14   ar
    15    14    15   ar
    16    15     1    1
    17     1     2    2
    18     2     3    1
    19     3    30    1
    20    30    32    1
    21    32    33   ar
    22    33    34   ar
    23    34    35   ar
    24    35    38    1
    25    38    39    1
    26    39    40    1
    27    40    41    1
    28    41    44    1
    29    44    45    2
    30    44    46   am
    31    46    47    1
    32    46    48    1
    33    48    49    1
    34    49    50    1
    35    50    51    1
    36    50    52    1
    37    41    42    1
    38    42    43    1
    39    35    36   ar
    40    36    37   ar
    41    37    53    1
    42    53    54    1
    43     3     4    2
    44     4     5    1
    45     5     6    2
    46     6     7    1
    47     7     8    2
    48     8     9    1
    49    15    16   ar
    50    16    17   ar
    51    17    18    1
    52    18    19    2
    53    25    20   ar
    54    18    10   am
    55    17    13   ar
    56     9     1    1
    57    37    32   ar
    58     9     5    1
    59    43    38    1
    60    30    31    1
@<TRIPOS>MOLECULE
*****
 54 60 0 0 0
SMALL
GASTEIGER

@<TRIPOS>ATOM
      1 C          61.4889   89.3285    9.4041 C.2     1  UNL1        0.1542
      2 N          60.5918   90.0110    8.4145 N.2     1  UNL1       -0.0655
      3 C          59.5752   89.2154    7.6504 C.cat   1  UNL1        0.4642
      4 N          59.4559   87.7373    7.8760 N.2     1  UNL1        0.0296
      5 C          60.3531   87.0548    8.8655 C.2     1  UNL1        0.3685
      6 N          60.4661   85.6225    9.2967 N.2     1  UNL1       -0.0340
      7 C          61.5524   85.5330   10.3272 C.2     1  UNL1        0.2321
      8 C          62.1108   86.9099   10.5329 C.2     1  UNL1        0.0439
      9 C          61.3696   87.8504    9.6296 C.3     1  UNL1        0.1946
     10 N          65.8504   92.1940   13.1948 N.am    1  UNL1       -0.2526
     11 C          65.8099   93.2591   12.1395 C.3     1  UNL1        0.1229
     12 C          64.9093   93.1027   10.9501 C.3     1  UNL1        0.1280
     13 N          64.0493   91.8811   10.8161 N.ar    1  UNL1       -0.3206
     14 C          63.0701   91.4536    9.7634 C.ar    1  UNL1        0.0787
     15 C          62.5054   90.1242   10.1681 C.ar    1  UNL1        0.0498
     16 C          63.1356   89.7301   11.4710 C.ar    1  UNL1        0.0259
     17 C          64.0898   90.8159   11.8715 C.ar    1  UNL1        0.1147
     18 C          64.9904   90.9724   13.0608 C.2     1  UNL1        0.2687
     19 O          65.0309   89.9072   14.1162 O.2     1  UNL1       -0.2680
     20 C          66.1641   92.4572   15.7604 C.ar    1  UNL1       -0.0088
     21 C          67.0646   92.6137   16.9498 C.ar    1  UNL1       -0.0031
     22 C          68.5521   92.6632   16.7629 C.ar    1  UNL1       -0.0006
     23 C          69.1390   92.5564   15.3866 C.ar    1  UNL1       -0.0031
     24 C          68.2384   92.4000   14.1973 C.ar    1  UNL1       -0.0088
     25 C          66.7509   92.3504   14.3842 C.ar    1  UNL1        0.0462
     26 C          64.0521   91.2664   16.6941 C.3     1  UNL1        0.0051
     27 C          64.6766   92.4077   15.9474 C.3     1  UNL1        0.0276
     28 C          68.8254   92.2931   12.8210 C.3     1  UNL1        0.0276
     29 C          68.6197   91.0465   12.0125 C.3     1  UNL1        0.0051
     30 N          58.6781   89.8980    6.6608 N.pl3   1  UNL1       -0.1896
     31 H          57.7008   89.8086    6.7390 H       1  UNL1        0.2524
     32 C          59.2701   90.7168    5.5522 C.ar    1  UNL1        0.1435
     33 C          60.7098   90.5353    5.1722 C.ar    1  UNL1        0.0356
     34 C          61.3018   91.3541    4.0635 C.ar    1  UNL1        0.0174
     35 C          60.4540   92.3544    3.3348 C.ar    1  UNL1        0.0511
     36 C          59.0144   92.5359    3.7149 C.ar    1  UNL1        0.0541
     37 C          58.4224   91.7170    4.8236 C.ar    1  UNL1        0.1684
     38 N          61.0460   93.1732    2.2262 N.pl3   1  UNL1       -0.3074
     39 C          62.2831   92.6998    1.5223 C.3     1  UNL1        0.0913
     40 C          62.8751   93.5186    0.4137 C.3     1  UNL1        0.0305
     41 C          62.2299   94.8108    0.0089 C.3     1  UNL1        0.0801
     42 C          60.9928   95.2843    0.7128 C.3     1  UNL1        0.0305
     43 C          60.4008   94.4655    1.8214 C.3     1  UNL1        0.0913
     44 C          62.8219   95.6297   -1.0997 C.2     1  UNL1        0.2254
     45 O          63.6273   96.8541   -0.7802 O.2     1  UNL1       -0.2749
     46 N          62.6084   95.2241   -2.5280 N.am    1  UNL1       -0.2764
     47 C          63.2003   96.0429   -3.6367 C.3     1  UNL1        0.1149
     48 C          61.8030   93.9997   -2.8476 C.3     1  UNL1        0.1107
     49 C          60.4076   94.1377   -3.3803 C.3     1  UNL1        0.0939
     50 N          59.3050   93.2858   -2.8248 N.3     1  UNL1       -0.2688
     51 C          58.1171   92.9477   -3.6760 C.3     1  UNL1        0.0897
     52 C          59.3903   92.7720   -1.4181 C.3     1  UNL1        0.0897
     53 O          56.9828   91.8985    5.2036 O.3     1  UNL1       -0.4687
     54 C          56.0471   90.7262    5.1794 C.3     1  UNL1        0.2526
@<TRIPOS>BOND
     1    26    27    1
     2    27    20    1
     3    20    21   ar
     4    21    22   ar
     5    22    23   ar
     6    23    24   ar
     7    24    28    1
     8    28    29    1
     9    24    25   ar
    10    25    10    1
    11    10    11    1
    12    11    12    1
    13    12    13    1
    14    13    14   ar
    15    14    15   ar
    16    15     1    1
    17     1     2    2
    18     2     3    1
    19     3    30    1
    20    30    32    1
    21    32    33   ar
    22    33    34   ar
    23    34    35   ar
    24    35    38    1
    25    38    39    1
    26    39    40    1
    27    40    41    1
    28    41    44    1
    29    44    45    2
    30    44    46   am
    31    46    47    1
    32    46    48    1
    33    48    49    1
    34    49    50    1
    35    50    51    1
    36    50    52    1
    37    41    42    1
    38    42    43    1
    39    35    36   ar
    40    36    37   ar
    41    37    53    1
    42    53    54    1
    43     3     4    2
    44     4     5    1
    45     5     6    2
    46     6     7    1
    47     7     8    2
    48     8     9    1
    49    15    16   ar
    50    16    17   ar
    51    17    18    1
    52    18    19    2
    53    25    20   ar
    54    18    10   am
    55    17    13   ar
    56     9     1    1
    57    37    32   ar
    58     9     5    1
    59    43    38    1
    60    30    31    1
@<TRIPOS>MOLECULE
*****
 54 60 0 0 0
SMALL
GASTEIGER

@<TRIPOS>ATOM
      1 C          60.3898   92.4277    2.9448 C.2     1  UNL1        0.1542
      2 N          59.5815   91.9535    4.1159 N.2     1  UNL1       -0.0655
      3 C          60.2167   91.0906    5.1657 C.cat   1  UNL1        0.4642
      4 N          61.6604   90.7021    5.0443 N.2     1  UNL1        0.0296
      5 C          62.4688   91.1764    3.8731 C.2     1  UNL1        0.3685
      6 N          63.9018   90.9568    3.4877 N.2     1  UNL1       -0.0340
      7 C          64.1520   91.6839    2.1999 C.2     1  UNL1        0.2321
      8 C          62.8738   92.3529    1.7892 C.2     1  UNL1        0.0439
      9 C          61.8335   92.0392    2.8233 C.3     1  UNL1        0.1946
     10 N          57.3619   95.5056   -1.8471 N.am    1  UNL1       -0.2526
     11 C          57.9906   96.7195   -1.2299 C.3     1  UNL1        0.1229
     12 C          58.8553   96.5793   -0.0122 C.3     1  UNL1        0.1280
     13 N          59.0911   95.2252    0.5883 N.ar    1  UNL1       -0.3206
     14 C          59.8897   94.7798    1.7774 C.ar    1  UNL1        0.0787
     15 C          59.7545   93.2905    1.8950 C.ar    1  UNL1        0.0498
     16 C          58.8723   92.8155    0.7787 C.ar    1  UNL1        0.0259
     17 C          58.4624   94.0112   -0.0289 C.ar    1  UNL1        0.1147
     18 C          57.5978   94.1514   -1.2466 C.2     1  UNL1        0.2687
     19 O          56.9690   92.9375   -1.8638 O.2     1  UNL1       -0.2680
     20 C          57.1167   95.6266   -4.4307 C.ar    1  UNL1       -0.0088
     21 C          56.2520   95.7667   -5.6485 C.ar    1  UNL1       -0.0031
     22 C          54.7679   95.9261   -5.5001 C.ar    1  UNL1       -0.0006
     23 C          54.1485   95.9453   -4.1341 C.ar    1  UNL1       -0.0031
     24 C          55.0132   95.8051   -2.9165 C.ar    1  UNL1       -0.0088
     25 C          56.4973   95.6458   -3.0648 C.ar    1  UNL1        0.0462
     26 C          59.1576   94.2997   -5.3386 C.3     1  UNL1        0.0051
     27 C          58.6008   95.4672   -4.5791 C.3     1  UNL1        0.0276
     28 C          54.3936   95.8243   -1.5505 C.3     1  UNL1        0.0276
     29 C          53.0525   96.4636   -1.3440 C.3     1  UNL1        0.0051
     30 N          59.4083   90.6164    6.3368 N.pl3   1  UNL1       -0.1896
     31 H          58.4353   90.7651    6.3558 H       1  UNL1        0.2524
     32 C          60.0825   89.9157    7.4789 C.ar    1  UNL1        0.1435
     33 C          61.0812   90.6490    8.3244 C.ar    1  UNL1        0.0356
     34 C          61.7553   89.9482    9.4665 C.ar    1  UNL1        0.0174
     35 C          61.4308   88.5141    9.7632 C.ar    1  UNL1        0.0511
     36 C          60.4321   87.7807    8.9178 C.ar    1  UNL1        0.0541
     37 C          59.7579   88.4816    7.7756 C.ar    1  UNL1        0.1684
     38 N          62.1049   87.8133   10.9054 N.pl3   1  UNL1       -0.3074
     39 C          62.8355   88.6081   11.9467 C.3     1  UNL1        0.0913
     40 C          63.5097   87.9073   13.0889 C.3     1  UNL1        0.0305
     41 C          63.4532   86.4118   13.1895 C.3     1  UNL1        0.0801
     42 C          62.7226   85.6170   12.1481 C.3     1  UNL1        0.0305
     43 C          62.0484   86.3178   11.0060 C.3     1  UNL1        0.0913
     44 C          64.1273   85.7109   14.3317 C.2     1  UNL1        0.2254
     45 O          65.3572   86.3027   14.9540 O.2     1  UNL1       -0.2749
     46 N          63.5715   84.4183   14.8515 N.am    1  UNL1       -0.2764
     47 C          64.2456   83.7174   15.9936 C.3     1  UNL1        0.1149
     48 C          62.3417   83.8266   14.2292 C.3     1  UNL1        0.1107
     49 C          62.0781   82.3542   14.3423 C.3     1  UNL1        0.0939
     50 N          62.3850   81.4465   13.1881 N.3     1  UNL1       -0.2688
     51 C          62.7966   82.0259   11.8672 C.3     1  UNL1        0.0897
     52 C          62.2802   79.9595   13.3550 C.3     1  UNL1        0.0897
     53 O          58.7592   87.7482    6.9302 O.3     1  UNL1       -0.4687
     54 C          58.5695   86.2706    7.1052 C.3     1  UNL1        0.2526
@<TRIPOS>BOND
     1    26    27    1
     2    27    20    1
     3    20    21   ar
     4    21    22   ar
     5    22    23   ar
     6    23    24   ar
     7    24    28    1
     8    28    29    1
     9    24    25   ar
    10    25    10    1
    11    10    11    1
    12    11    12    1
    13    12    13    1
    14    13    14   ar
    15    14    15   ar
    16    15     1    1
    17     1     2    2
    18     2     3    1
    19     3    30    1
    20    30    32    1
    21    32    33   ar
    22    33    34   ar
    23    34    35   ar
    24    35    38    1
    25    38    39    1
    26    39    40    1
    27    40    41    1
    28    41    44    1
    29    44    45    2
    30    44    46   am
    31    46    47    1
    32    46    48    1
    33    48    49    1
    34    49    50    1
    35    50    51    1
    36    50    52    1
    37    41    42    1
    38    42    43    1
    39    35    36   ar
    40    36    37   ar
    41    37    53    1
    42    53    54    1
    43     3     4    2
    44     4     5    1
    45     5     6    2
    46     6     7    1
    47     7     8    2
    48     8     9    1
    49    15    16   ar
    50    16    17   ar
    51    17    18    1
    52    18    19    2
    53    25    20   ar
    54    18    10   am
    55    17    13   ar
    56     9     1    1
    57    37    32   ar
    58     9     5    1
    59    43    38    1
    60    30    31    1
@<TRIPOS>MOLECULE
*****
 54 60 0 0 0
SMALL
GASTEIGER

@<TRIPOS>ATOM
      1 C          60.2662   92.2892    2.9191 C.2     1  UNL1        0.1542
      2 N          59.4489   91.7112    4.0362 N.2     1  UNL1       -0.0655
      3 C          60.1096   90.8830    5.0982 C.cat   1  UNL1        0.4642
      4 N          61.5875   90.6328    5.0429 N.2     1  UNL1        0.0296
      5 C          62.4047   91.2109    3.9258 C.2     1  UNL1        0.3685
      6 N          63.8693   91.1349    3.6102 N.2     1  UNL1       -0.0340
      7 C          64.1136   91.9162    2.3532 C.2     1  UNL1        0.2321
      8 C          62.8002   92.4750    1.8920 C.2     1  UNL1        0.0439
      9 C          61.7441   92.0391    2.8638 C.3     1  UNL1        0.1946
     10 N          57.1181   95.2104   -1.8933 N.am    1  UNL1       -0.2526
     11 C          57.7705   96.4420   -1.3388 C.3     1  UNL1        0.1229
     12 C          58.6690   96.3406   -0.1419 C.3     1  UNL1        0.1280
     13 N          58.9149   95.0076    0.5004 N.ar    1  UNL1       -0.3206
     14 C          59.7450   94.6006    1.6817 C.ar    1  UNL1        0.0787
     15 C          59.6054   93.1174    1.8572 C.ar    1  UNL1        0.0498
     16 C          58.6892   92.6078    0.7845 C.ar    1  UNL1        0.0259
     17 C          58.2624   93.7760   -0.0541 C.ar    1  UNL1        0.1147
     18 C          57.3640   93.8774   -1.2510 C.2     1  UNL1        0.2687
     19 O          56.7115   92.6459   -1.8055 O.2     1  UNL1       -0.2680
     20 C          54.7971   95.7579   -2.9246 C.ar    1  UNL1       -0.0088
     21 C          53.8986   95.8593   -4.1215 C.ar    1  UNL1       -0.0031
     22 C          54.4228   95.5145   -5.4840 C.ar    1  UNL1       -0.0006
     23 C          55.8453   95.0684   -5.6496 C.ar    1  UNL1       -0.0031
     24 C          56.7437   94.9670   -4.4527 C.ar    1  UNL1       -0.0088
     25 C          56.2196   95.3118   -3.0902 C.ar    1  UNL1        0.0462
     26 C          52.7939   96.1798   -1.3248 C.3     1  UNL1        0.0051
     27 C          54.2730   96.1027   -1.5621 C.3     1  UNL1        0.0276
     28 C          58.1662   94.5209   -4.6184 C.3     1  UNL1        0.0276
     29 C          58.6842   94.1555   -5.9778 C.3     1  UNL1        0.0051
     30 N          59.2923   90.3050    6.2153 N.pl3   1  UNL1       -0.1896
     31 H          58.3732   90.6231    6.3684 H       1  UNL1        0.2524
     32 C          59.8753   89.2425    7.0990 C.ar    1  UNL1        0.1435
     33 C          60.2275   87.9013    6.5271 C.ar    1  UNL1        0.0356
     34 C          60.8105   86.8387    7.4108 C.ar    1  UNL1        0.0174
     35 C          61.0413   87.1173    8.8666 C.ar    1  UNL1        0.0511
     36 C          60.6891   88.4585    9.4386 C.ar    1  UNL1        0.0541
     37 C          60.1061   89.5211    8.5547 C.ar    1  UNL1        0.1684
     38 N          61.6244   86.0548    9.7504 N.pl3   1  UNL1       -0.3074
     39 C          62.4666   84.9646    9.1570 C.3     1  UNL1        0.0913
     40 C          63.0496   83.9020   10.0407 C.3     1  UNL1        0.0305
     41 C          62.7903   83.9297   11.5179 C.3     1  UNL1        0.0801
     42 C          61.9481   85.0198   12.1113 C.3     1  UNL1        0.0305
     43 C          61.3651   86.0824   11.2275 C.3     1  UNL1        0.0913
     44 C          63.3733   82.8671   12.4017 C.2     1  UNL1        0.2254
     45 O          64.2416   81.7950   11.8131 O.2     1  UNL1       -0.2749
     46 N          63.0880   82.8768   13.8743 N.am    1  UNL1       -0.2764
     47 C          63.6709   81.8143   14.7582 C.3     1  UNL1        0.1149
     48 C          62.2197   83.9489   14.4630 C.3     1  UNL1        0.1107
     49 C          62.4224   84.3817   15.8848 C.3     1  UNL1        0.0939
     50 N          63.1440   85.6625   16.1833 N.3     1  UNL1       -0.2688
     51 C          62.7690   86.4709   17.3899 C.3     1  UNL1        0.0897
     52 C          64.2405   86.1347   15.2753 C.3     1  UNL1        0.0897
     53 O          59.7538   90.8623    9.1267 O.3     1  UNL1       -0.4687
     54 C          59.6947   91.0516   10.6136 C.3     1  UNL1        0.2526
@<TRIPOS>BOND
     1    26    27    1
     2    27    20    1
     3    20    21   ar
     4    21    22   ar
     5    22    23   ar
     6    23    24   ar
     7    24    28    1
     8    28    29    1
     9    24    25   ar
    10    25    10    1
    11    10    11    1
    12    11    12    1
    13    12    13    1
    14    13    14   ar
    15    14    15   ar
    16    15     1    1
    17     1     2    2
    18     2     3    1
    19     3    30    1
    20    30    32    1
    21    32    33   ar
    22    33    34   ar
    23    34    35   ar
    24    35    38    1
    25    38    39    1
    26    39    40    1
    27    40    41    1
    28    41    44    1
    29    44    45    2
    30    44    46   am
    31    46    47    1
    32    46    48    1
    33    48    49    1
    34    49    50    1
    35    50    51    1
    36    50    52    1
    37    41    42    1
    38    42    43    1
    39    35    36   ar
    40    36    37   ar
    41    37    53    1
    42    53    54    1
    43     3     4    2
    44     4     5    1
    45     5     6    2
    46     6     7    1
    47     7     8    2
    48     8     9    1
    49    15    16   ar
    50    16    17   ar
    51    17    18    1
    52    18    19    2
    53    25    20   ar
    54    18    10   am
    55    17    13   ar
    56     9     1    1
    57    37    32   ar
    58     9     5    1
    59    43    38    1
    60    30    31    1
@<TRIPOS>MOLECULE
*****
 54 60 0 0 0
SMALL
GASTEIGER

@<TRIPOS>ATOM
      1 C          59.1678   91.0703    5.0704 C.2     1  UNL1        0.1542
      2 N          60.0225   90.1288    5.8661 N.2     1  UNL1       -0.0655
      3 C          59.3828   89.1187    6.7720 C.cat   1  UNL1        0.4642
      4 N          57.8885   89.0502    6.8822 N.2     1  UNL1        0.0296
      5 C          57.0338   89.9917    6.0865 C.2     1  UNL1        0.3685
      6 N          55.5462   90.1589    5.9900 N.2     1  UNL1       -0.0340
      7 C          55.2666   91.2722    5.0245 C.2     1  UNL1        0.2321
      8 C          56.5813   91.7932    4.5242 C.2     1  UNL1        0.0439
      9 C          57.6734   91.0018    5.1806 C.3     1  UNL1        0.1946
     10 N          62.4744   94.9160    1.0854 N.am    1  UNL1       -0.2526
     11 C          61.3255   95.8519    1.3175 C.3     1  UNL1        0.1229
     12 C          60.1970   95.4452    2.2182 C.3     1  UNL1        0.1280
     13 N          60.2175   94.1025    2.8866 N.ar    1  UNL1       -0.3206
     14 C          59.2540   93.4312    3.8199 C.ar    1  UNL1        0.0787
     15 C          59.8075   92.0803    4.1645 C.ar    1  UNL1        0.0498
     16 C          61.1131   91.9168    3.4442 C.ar    1  UNL1        0.0259
     17 C          61.3664   93.1666    2.6544 C.ar    1  UNL1        0.1147
     18 C          62.4949   93.5733    1.7538 C.2     1  UNL1        0.2687
     19 O          63.6439   92.6374    1.5216 O.2     1  UNL1       -0.2680
     20 C          63.6386   94.8435   -1.2361 C.ar    1  UNL1       -0.0088
     21 C          64.7672   95.2502   -2.1368 C.ar    1  UNL1       -0.0031
     22 C          65.8601   96.1361   -1.6163 C.ar    1  UNL1       -0.0006
     23 C          65.8244   96.6153   -0.1954 C.ar    1  UNL1       -0.0031
     24 C          64.6958   96.2085    0.7052 C.ar    1  UNL1       -0.0088
     25 C          63.6030   95.3227    0.1848 C.ar    1  UNL1        0.0462
     26 C          62.6784   93.3169   -3.1063 C.3     1  UNL1        0.0051
     27 C          62.5458   93.9577   -1.7566 C.3     1  UNL1        0.0276
     28 C          64.6602   96.6878    2.1262 C.3     1  UNL1        0.0276
     29 C          65.3067   95.8748    3.2084 C.3     1  UNL1        0.0051
     30 N          60.2376   88.1773    7.5676 N.pl3   1  UNL1       -0.1896
     31 H          60.2814   87.2250    7.3218 H       1  UNL1        0.2524
     32 C          61.0256   88.6869    8.7378 C.ar    1  UNL1        0.1435
     33 C          61.0687   90.1576    9.0298 C.ar    1  UNL1        0.0356
     34 C          61.8567   90.6672   10.1999 C.ar    1  UNL1        0.0174
     35 C          62.6018   89.7060   11.0782 C.ar    1  UNL1        0.0511
     36 C          62.5587   88.2354   10.7863 C.ar    1  UNL1        0.0541
     37 C          61.7706   87.7258    9.6161 C.ar    1  UNL1        0.1684
     38 N          63.3898   90.2156   12.2484 N.pl3   1  UNL1       -0.3074
     39 C          63.8452   91.6445   12.2809 C.3     1  UNL1        0.0913
     40 C          64.6332   92.1541   13.4511 C.3     1  UNL1        0.0305
     41 C          64.9659   91.2348   14.5887 C.3     1  UNL1        0.0801
     42 C          64.5105   89.8059   14.5562 C.3     1  UNL1        0.0305
     43 C          63.7224   89.2963   13.3860 C.3     1  UNL1        0.0913
     44 C          65.7539   91.7443   15.7589 C.2     1  UNL1        0.2254
     45 O          65.0592   92.0623   17.0497 O.2     1  UNL1       -0.2749
     46 N          67.2367   91.9358   15.6382 N.am    1  UNL1       -0.2764
     47 C          68.0249   92.4453   16.8084 C.3     1  UNL1        0.1149
     48 C          67.9315   91.6178   14.3475 C.3     1  UNL1        0.1107
     49 C          68.2931   92.7218   13.3985 C.3     1  UNL1        0.0939
     50 N          67.4000   93.0323   12.2339 N.3     1  UNL1       -0.2688
     51 C          66.4664   94.2046   12.2963 C.3     1  UNL1        0.0897
     52 C          67.4407   92.1704   11.0069 C.3     1  UNL1        0.0897
     53 O          61.7275   86.2552    9.3241 O.3     1  UNL1       -0.4687
     54 C          62.7817   85.6311    8.4584 C.3     1  UNL1        0.2526
@<TRIPOS>BOND
     1    26    27    1
     2    27    20    1
     3    20    21   ar
     4    21    22   ar
     5    22    23   ar
     6    23    24   ar
     7    24    28    1
     8    28    29    1
     9    24    25   ar
    10    25    10    1
    11    10    11    1
    12    11    12    1
    13    12    13    1
    14    13    14   ar
    15    14    15   ar
    16    15     1    1
    17     1     2    2
    18     2     3    1
    19     3    30    1
    20    30    32    1
    21    32    33   ar
    22    33    34   ar
    23    34    35   ar
    24    35    38    1
    25    38    39    1
    26    39    40    1
    27    40    41    1
    28    41    44    1
    29    44    45    2
    30    44    46   am
    31    46    47    1
    32    46    48    1
    33    48    49    1
    34    49    50    1
    35    50    51    1
    36    50    52    1
    37    41    42    1
    38    42    43    1
    39    35    36   ar
    40    36    37   ar
    41    37    53    1
    42    53    54    1
    43     3     4    2
    44     4     5    1
    45     5     6    2
    46     6     7    1
    47     7     8    2
    48     8     9    1
    49    15    16   ar
    50    16    17   ar
    51    17    18    1
    52    18    19    2
    53    25    20   ar
    54    18    10   am
    55    17    13   ar
    56     9     1    1
    57    37    32   ar
    58     9     5    1
    59    43    38    1
    60    30    31    1
@<TRIPOS>MOLECULE
*****
 54 60 0 0 0
SMALL
GASTEIGER

@<TRIPOS>ATOM
      1 C          59.1665   91.0594    5.0877 C.2     1  UNL1        0.1542
      2 N          60.0204   90.1188    5.8853 N.2     1  UNL1       -0.0655
      3 C          59.3798   89.1084    6.7902 C.cat   1  UNL1        0.4642
      4 N          57.8853   89.0387    6.8975 N.2     1  UNL1        0.0296
      5 C          57.0314   89.9793    6.0999 C.2     1  UNL1        0.3685
      6 N          55.5438   90.1452    6.0004 N.2     1  UNL1       -0.0340
      7 C          55.2652   91.2581    5.0341 C.2     1  UNL1        0.2321
      8 C          56.5804   91.7800    4.5363 C.2     1  UNL1        0.0439
      9 C          57.6720   90.9897    5.1950 C.3     1  UNL1        0.1946
     10 N          62.4624   94.8949    1.0841 N.am    1  UNL1       -0.2526
     11 C          61.3431   95.8538    1.3622 C.3     1  UNL1        0.1229
     12 C          60.2285   95.4584    2.2850 C.3     1  UNL1        0.1280
     13 N          60.2334   94.1039    2.9295 N.ar    1  UNL1       -0.3206
     14 C          59.2781   93.4394    3.8760 C.ar    1  UNL1        0.0787
     15 C          59.8072   92.0698    4.1828 C.ar    1  UNL1        0.0498
     16 C          61.0894   91.8878    3.4260 C.ar    1  UNL1        0.0259
     17 C          61.3528   93.1450    2.6513 C.ar    1  UNL1        0.1147
     18 C          62.4673   93.5405    1.7286 C.2     1  UNL1        0.2687
     19 O          63.5867   92.5816    1.4505 O.2     1  UNL1       -0.2680
     20 C          64.6908   96.1620    0.6610 C.ar    1  UNL1       -0.0088
     21 C          65.8054   96.5575   -0.2618 C.ar    1  UNL1       -0.0031
     22 C          65.8061   96.0812   -1.6841 C.ar    1  UNL1       -0.0006
     23 C          64.6923   95.2096   -2.1838 C.ar    1  UNL1       -0.0031
     24 C          63.5777   94.8141   -1.2610 C.ar    1  UNL1       -0.0088
     25 C          63.5770   95.2904    0.1614 C.ar    1  UNL1        0.0462
     26 C          65.2858   95.7821    3.1614 C.3     1  UNL1        0.0051
     27 C          64.6901   96.6383    2.0834 C.3     1  UNL1        0.0276
     28 C          62.4639   93.9425   -1.7607 C.3     1  UNL1        0.0276
     29 C          62.4642   93.4668   -3.1833 C.3     1  UNL1        0.0051
     30 N          60.2337   88.1679    7.5878 N.pl3   1  UNL1       -0.1896
     31 H          60.2654   87.2124    7.3528 H       1  UNL1        0.2524
     32 C          61.0393   88.6833    8.7433 C.ar    1  UNL1        0.1435
     33 C          61.0960   90.1564    9.0204 C.ar    1  UNL1        0.0356
     34 C          61.9017   90.6717   10.1760 C.ar    1  UNL1        0.0174
     35 C          62.6506   89.7139   11.0546 C.ar    1  UNL1        0.0511
     36 C          62.5939   88.2408   10.7775 C.ar    1  UNL1        0.0541
     37 C          61.7883   87.7256    9.6219 C.ar    1  UNL1        0.1684
     38 N          63.4563   90.2293   12.2101 N.pl3   1  UNL1       -0.3074
     39 C          63.7775   89.3251   13.3630 C.3     1  UNL1        0.0913
     40 C          64.5831   89.8405   14.5186 C.3     1  UNL1        0.0305
     41 C          65.0675   91.2601   14.5212 C.3     1  UNL1        0.0801
     42 C          64.7463   92.1643   13.3683 C.3     1  UNL1        0.0305
     43 C          63.9406   91.6489   12.2127 C.3     1  UNL1        0.0913
     44 C          65.8731   91.7755   15.6768 C.2     1  UNL1        0.2254
     45 O          65.2063   92.0538   16.9913 O.2     1  UNL1       -0.2749
     46 N          67.3457   92.0127   15.5178 N.am    1  UNL1       -0.2764
     47 C          68.1514   92.5282   16.6733 C.3     1  UNL1        0.1149
     48 C          68.0126   91.7345   14.2034 C.3     1  UNL1        0.1107
     49 C          68.2681   92.8553   13.2398 C.3     1  UNL1        0.0939
     50 N          67.6771   92.8092   11.8618 N.3     1  UNL1       -0.2688
     51 C          68.0396   91.6933   10.9273 C.3     1  UNL1        0.0897
     52 C          66.7236   93.8789   11.4185 C.3     1  UNL1        0.0897
     53 O          61.7315   86.2525    9.3449 O.3     1  UNL1       -0.4687
     54 C          62.7546   85.6175    8.4502 C.3     1  UNL1        0.2526
@<TRIPOS>BOND
     1    26    27    1
     2    27    20    1
     3    20    21   ar
     4    21    22   ar
     5    22    23   ar
     6    23    24   ar
     7    24    28    1
     8    28    29    1
     9    24    25   ar
    10    25    10    1
    11    10    11    1
    12    11    12    1
    13    12    13    1
    14    13    14   ar
    15    14    15   ar
    16    15     1    1
    17     1     2    2
    18     2     3    1
    19     3    30    1
    20    30    32    1
    21    32    33   ar
    22    33    34   ar
    23    34    35   ar
    24    35    38    1
    25    38    39    1
    26    39    40    1
    27    40    41    1
    28    41    44    1
    29    44    45    2
    30    44    46   am
    31    46    47    1
    32    46    48    1
    33    48    49    1
    34    49    50    1
    35    50    51    1
    36    50    52    1
    37    41    42    1
    38    42    43    1
    39    35    36   ar
    40    36    37   ar
    41    37    53    1
    42    53    54    1
    43     3     4    2
    44     4     5    1
    45     5     6    2
    46     6     7    1
    47     7     8    2
    48     8     9    1
    49    15    16   ar
    50    16    17   ar
    51    17    18    1
    52    18    19    2
    53    25    20   ar
    54    18    10   am
    55    17    13   ar
    56     9     1    1
    57    37    32   ar
    58     9     5    1
    59    43    38    1
    60    30    31    1
@<TRIPOS>MOLECULE
*****
 54 60 0 0 0
SMALL
GASTEIGER

@<TRIPOS>ATOM
      1 C          60.3498   92.3637    2.9113 C.2     1  UNL1        0.1542
      2 N          59.5439   91.8804    4.0804 N.2     1  UNL1       -0.0655
      3 C          60.1955   91.0568    5.1515 C.cat   1  UNL1        0.4642
      4 N          61.6531   90.7165    5.0534 N.2     1  UNL1        0.0296
      5 C          62.4590   91.1998    3.8843 C.2     1  UNL1        0.3685
      6 N          63.9033   91.0239    3.5194 N.2     1  UNL1       -0.0340
      7 C          64.1443   91.7387    2.2229 C.2     1  UNL1        0.2321
      8 C          62.8490   92.3565    1.7864 C.2     1  UNL1        0.0439
      9 C          61.8074   92.0234    2.8132 C.3     1  UNL1        0.1946
     10 N          57.2408   95.2644   -1.9388 N.am    1  UNL1       -0.2526
     11 C          57.8925   96.4975   -1.3870 C.3     1  UNL1        0.1229
     12 C          58.7827   96.4010   -0.1836 C.3     1  UNL1        0.1280
     13 N          59.0212   95.0712    0.4680 N.ar    1  UNL1       -0.3206
     14 C          59.8424   94.6690    1.6572 C.ar    1  UNL1        0.0787
     15 C          59.6982   93.1873    1.8403 C.ar    1  UNL1        0.0498
     16 C          58.7879   92.6736    0.7643 C.ar    1  UNL1        0.0259
     17 C          58.3695   93.8379   -0.0838 C.ar    1  UNL1        0.1147
     18 C          57.4793   93.9345   -1.2872 C.2     1  UNL1        0.2687
     19 O          56.8277   92.7013   -1.8390 O.2     1  UNL1       -0.2680
     20 C          54.9472   95.8704   -2.9981 C.ar    1  UNL1       -0.0088
     21 C          54.0570   95.9669   -4.2016 C.ar    1  UNL1       -0.0031
     22 C          54.5703   95.5540   -5.5492 C.ar    1  UNL1       -0.0006
     23 C          55.9738   95.0445   -5.6933 C.ar    1  UNL1       -0.0031
     24 C          56.8639   94.9480   -4.4898 C.ar    1  UNL1       -0.0088
     25 C          56.3506   95.3609   -3.1423 C.ar    1  UNL1        0.0462
     26 C          53.0155   95.9849   -1.2644 C.3     1  UNL1        0.0051
     27 C          54.4339   96.2833   -1.6505 C.3     1  UNL1        0.0276
     28 C          58.2674   94.4385   -4.6340 C.3     1  UNL1        0.0276
     29 C          58.8052   94.0960   -5.9918 C.3     1  UNL1        0.0051
     30 N          59.3895   90.5735    6.3206 N.pl3   1  UNL1       -0.1896
     31 H          58.4137   90.7038    6.3333 H       1  UNL1        0.2524
     32 C          60.0702   89.8917    7.4702 C.ar    1  UNL1        0.1435
     33 C          61.0617   90.6437    8.3077 C.ar    1  UNL1        0.0356
     34 C          61.7425   89.9619    9.4574 C.ar    1  UNL1        0.0174
     35 C          61.4317   88.5280    9.7696 C.ar    1  UNL1        0.0511
     36 C          60.4402   87.7760    8.9321 C.ar    1  UNL1        0.0541
     37 C          59.7595   88.4579    7.7824 C.ar    1  UNL1        0.1684
     38 N          62.1124   87.8462   10.9193 N.pl3   1  UNL1       -0.3074
     39 C          62.0697   86.3514   11.0367 C.3     1  UNL1        0.0913
     40 C          62.7504   85.6696   12.1864 C.3     1  UNL1        0.0305
     41 C          63.4739   86.4827   13.2186 C.3     1  UNL1        0.0801
     42 C          63.5167   87.9774   13.1011 C.3     1  UNL1        0.0305
     43 C          62.8359   88.6592   11.9515 C.3     1  UNL1        0.0913
     44 C          64.1547   85.8009   14.3683 C.2     1  UNL1        0.2254
     45 O          65.3845   86.4062   14.9776 O.2     1  UNL1       -0.2749
     46 N          63.6056   84.5139   14.9087 N.am    1  UNL1       -0.2764
     47 C          64.2863   83.8321   16.0584 C.3     1  UNL1        0.1149
     48 C          62.3758   83.9086   14.2995 C.3     1  UNL1        0.1107
     49 C          62.1495   82.4280   14.3806 C.3     1  UNL1        0.0939
     50 N          62.7830   81.5161   13.3720 N.3     1  UNL1       -0.2688
     51 C          63.9035   82.0154   12.5089 C.3     1  UNL1        0.0897
     52 C          62.2959   80.1049   13.2265 C.3     1  UNL1        0.0897
     53 O          58.7680   87.7058    6.9450 O.3     1  UNL1       -0.4687
     54 C          58.2400   86.3827    7.4147 C.3     1  UNL1        0.2526
@<TRIPOS>BOND
     1    26    27    1
     2    27    20    1
     3    20    21   ar
     4    21    22   ar
     5    22    23   ar
     6    23    24   ar
     7    24    28    1
     8    28    29    1
     9    24    25   ar
    10    25    10    1
    11    10    11    1
    12    11    12    1
    13    12    13    1
    14    13    14   ar
    15    14    15   ar
    16    15     1    1
    17     1     2    2
    18     2     3    1
    19     3    30    1
    20    30    32    1
    21    32    33   ar
    22    33    34   ar
    23    34    35   ar
    24    35    38    1
    25    38    39    1
    26    39    40    1
    27    40    41    1
    28    41    44    1
    29    44    45    2
    30    44    46   am
    31    46    47    1
    32    46    48    1
    33    48    49    1
    34    49    50    1
    35    50    51    1
    36    50    52    1
    37    41    42    1
    38    42    43    1
    39    35    36   ar
    40    36    37   ar
    41    37    53    1
    42    53    54    1
    43     3     4    2
    44     4     5    1
    45     5     6    2
    46     6     7    1
    47     7     8    2
    48     8     9    1
    49    15    16   ar
    50    16    17   ar
    51    17    18    1
    52    18    19    2
    53    25    20   ar
    54    18    10   am
    55    17    13   ar
    56     9     1    1
    57    37    32   ar
    58     9     5    1
    59    43    38    1
    60    30    31    1
@<TRIPOS>MOLECULE
*****
 54 60 0 0 0
SMALL
GASTEIGER

@<TRIPOS>ATOM
      1 C          60.0316   93.0590    2.1760 C.2     1  UNL1        0.1542
      2 N          59.1903   92.6061    3.3323 N.2     1  UNL1       -0.0655
      3 C          59.8209   91.8650    4.4739 C.cat   1  UNL1        0.4642
      4 N          61.2928   91.5768    4.4591 N.2     1  UNL1        0.0296
      5 C          62.1342   92.0297    3.3028 C.2     1  UNL1        0.3685
      6 N          63.5993   91.8912    3.0125 N.2     1  UNL1       -0.0340
      7 C          63.8742   92.5467    1.6916 C.2     1  UNL1        0.2321
      8 C          62.5789   93.0903    1.1654 C.2     1  UNL1        0.0439
      9 C          61.5036   92.7709    2.1612 C.3     1  UNL1        0.1946
     10 N          56.9398   95.6135   -2.8757 N.am    1  UNL1       -0.2526
     11 C          57.7363   96.8345   -2.5230 C.3     1  UNL1        0.1229
     12 C          58.6808   96.8034   -1.3580 C.3     1  UNL1        0.1280
     13 N          58.8287   95.5510   -0.5458 N.ar    1  UNL1       -0.3206
     14 C          59.6747   95.2236    0.6488 C.ar    1  UNL1        0.0787
     15 C          59.4009   93.8001    1.0344 C.ar    1  UNL1        0.0498
     16 C          58.3858   93.2478    0.0782 C.ar    1  UNL1        0.0259
     17 C          58.0322   94.3299   -0.8985 C.ar    1  UNL1        0.1147
     18 C          57.0877   94.3611   -2.0634 C.2     1  UNL1        0.2687
     19 O          56.2912   93.1400   -2.4161 O.2     1  UNL1       -0.2680
     20 C          56.4619   95.2044   -5.3964 C.ar    1  UNL1       -0.0088
     21 C          55.5174   95.2355   -6.5614 C.ar    1  UNL1       -0.0031
     22 C          54.1063   95.7070   -6.3703 C.ar    1  UNL1       -0.0006
     23 C          53.6397   96.1473   -5.0144 C.ar    1  UNL1       -0.0031
     24 C          54.5842   96.1161   -3.8496 C.ar    1  UNL1       -0.0088
     25 C          55.9953   95.6446   -4.0406 C.ar    1  UNL1        0.0462
     26 C          58.9118   95.6728   -6.1238 C.3     1  UNL1        0.0051
     27 C          57.8730   94.7329   -5.5875 C.3     1  UNL1        0.0276
     28 C          54.1176   96.5564   -2.4937 C.3     1  UNL1        0.0276
     29 C          53.1609   95.7023   -1.7158 C.3     1  UNL1        0.0051
     30 N          58.9795   91.4121    5.6301 N.pl3   1  UNL1       -0.1896
     31 H          58.0804   91.7906    5.7627 H       1  UNL1        0.2524
     32 C          59.5080   90.3825    6.5843 C.ar    1  UNL1        0.1435
     33 C          60.8428   90.5817    7.2389 C.ar    1  UNL1        0.0356
     34 C          61.3714   89.5520    8.1931 C.ar    1  UNL1        0.0174
     35 C          60.5650   88.3231    8.4926 C.ar    1  UNL1        0.0511
     36 C          59.2302   88.1238    7.8380 C.ar    1  UNL1        0.0541
     37 C          58.7017   89.1536    6.8838 C.ar    1  UNL1        0.1684
     38 N          61.0936   87.2934    9.4468 N.pl3   1  UNL1       -0.3074
     39 C          60.6787   87.3234   10.8880 C.3     1  UNL1        0.0913
     40 C          61.2073   86.2937   11.8422 C.3     1  UNL1        0.0305
     41 C          62.1506   85.2341   11.3551 C.3     1  UNL1        0.0801
     42 C          62.5655   85.2042    9.9139 C.3     1  UNL1        0.0305
     43 C          62.0370   86.2338    8.9598 C.3     1  UNL1        0.0913
     44 C          62.6792   84.2044   12.3092 C.2     1  UNL1        0.2254
     45 O          62.4041   82.7493   12.0706 O.2     1  UNL1       -0.2749
     46 N          63.4830   84.6299   13.5021 N.am    1  UNL1       -0.2764
     47 C          64.0117   83.6002   14.4563 C.3     1  UNL1        0.1149
     48 C          63.7582   86.0849   13.7408 C.3     1  UNL1        0.1107
     49 C          64.3856   86.5281   15.0292 C.3     1  UNL1        0.0939
     50 N          63.5243   87.0386   16.1463 N.3     1  UNL1       -0.2688
     51 C          63.3150   88.5140   16.3177 C.3     1  UNL1        0.0897
     52 C          62.8724   86.0737   17.0918 C.3     1  UNL1        0.0897
     53 O          57.3669   88.9544    6.2292 O.3     1  UNL1       -0.4687
     54 C          56.5893   90.1384    5.7357 C.3     1  UNL1        0.2526
@<TRIPOS>BOND
     1    26    27    1
     2    27    20    1
     3    20    21   ar
     4    21    22   ar
     5    22    23   ar
     6    23    24   ar
     7    24    28    1
     8    28    29    1
     9    24    25   ar
    10    25    10    1
    11    10    11    1
    12    11    12    1
    13    12    13    1
    14    13    14   ar
    15    14    15   ar
    16    15     1    1
    17     1     2    2
    18     2     3    1
    19     3    30    1
    20    30    32    1
    21    32    33   ar
    22    33    34   ar
    23    34    35   ar
    24    35    38    1
    25    38    39    1
    26    39    40    1
    27    40    41    1
    28    41    44    1
    29    44    45    2
    30    44    46   am
    31    46    47    1
    32    46    48    1
    33    48    49    1
    34    49    50    1
    35    50    51    1
    36    50    52    1
    37    41    42    1
    38    42    43    1
    39    35    36   ar
    40    36    37   ar
    41    37    53    1
    42    53    54    1
    43     3     4    2
    44     4     5    1
    45     5     6    2
    46     6     7    1
    47     7     8    2
    48     8     9    1
    49    15    16   ar
    50    16    17   ar
    51    17    18    1
    52    18    19    2
    53    25    20   ar
    54    18    10   am
    55    17    13   ar
    56     9     1    1
    57    37    32   ar
    58     9     5    1
    59    43    38    1
    60    30    31    1
