@<TRIPOS>MOLECULE
*****
 43 48 0 0 0
SMALL
GASTEIGER

@<TRIPOS>ATOM
      1 N          59.3285   89.0843    7.6583 N.3     1  UNL1       -0.2688
      2 C          59.8972   89.8137    8.8391 C.3     1  UNL1        0.0745
      3 C          60.7652   89.0866    9.8228 C.3     1  UNL1        0.0446
      4 C          61.0644   87.6300    9.6257 C.3     1  UNL1        0.1341
      5 C          60.4957   86.9006    8.4449 C.3     1  UNL1        0.0446
      6 C          59.6277   87.6278    7.4612 C.3     1  UNL1        0.0745
      7 C          61.4487   86.1815    9.5604 C.2     1  UNL1        0.2525
      8 O          61.0325   85.2059    8.4997 O.2     1  UNL1       -0.2724
      9 N          62.3224   85.8799   10.7419 N.am    1  UNL1       -0.1909
     10 C          62.4780   87.1421   11.5375 C.2     1  UNL1        0.3173
     11 O          63.2717   87.2956   12.8009 O.2     1  UNL1       -0.2516
     12 N          61.7006   88.2236   10.8477 N.am    1  UNL1       -0.2544
     13 C          62.9332   84.5498   11.0702 C.ar    1  UNL1        0.0652
     14 C          63.8350   83.8739   10.0804 C.ar    1  UNL1        0.0156
     15 C          64.4458   82.5438   10.4087 C.ar    1  UNL1        0.0044
     16 C          64.1547   81.8896   11.7267 C.ar    1  UNL1        0.0370
     17 C          63.2528   82.5656   12.7165 C.ar    1  UNL1        0.1400
     18 C          62.6420   83.8957   12.3882 C.ar    1  UNL1        0.0522
     19 O          62.9616   81.9114   14.0346 O.3     1  UNL1       -0.4714
     20 C          61.6354   81.2500   14.2669 C.3     1  UNL1        0.2525
     21 C          58.4604   89.8115    6.6744 C.3     1  UNL1        0.0991
     22 C          60.3337   92.3766    3.4868 C.ar    1  UNL1        0.0016
     23 C          58.8624   92.4765    3.7613 C.ar    1  UNL1       -0.0002
     24 C          58.2380   91.6215    4.8239 C.ar    1  UNL1       -0.0029
     25 C          59.0849   90.6665    5.6119 C.ar    1  UNL1       -0.0061
     26 C          60.5561   90.5666    5.3374 C.ar    1  UNL1       -0.0029
     27 C          61.1806   91.4217    4.2748 C.ar    1  UNL1       -0.0002
     28 C          62.9796   93.8024    0.8953 C.ar    1  UNL1        0.1578
     29 C          62.2071   94.9416    0.2992 C.ar    1  UNL1        0.1356
     30 N          60.8101   95.2259    0.7656 N.ar    1  UNL1       -0.2391
     31 C          60.1856   94.3708    1.8282 C.ar    1  UNL1        0.0991
     32 C          60.9581   93.2316    2.4243 C.ar    1  UNL1        0.0222
     33 C          62.3552   92.9474    1.9578 C.ar    1  UNL1        0.0401
     34 C          65.3548   94.6429    0.2611 C.3     1  UNL1        0.2525
     35 O          64.3766   93.5181    0.4288 O.3     1  UNL1       -0.4699
     36 C          61.5803   89.6486   11.3003 C.3     1  UNL1        0.1243
     37 C          62.8096   90.4240   11.6713 C.ar    1  UNL1        0.0252
     38 C          63.3615   90.3337   13.0632 C.ar    1  UNL1       -0.0004
     39 C          64.5908   91.1091   13.4344 C.ar    1  UNL1       -0.0001
     40 C          65.2682   91.9747   12.4137 C.ar    1  UNL1        0.0023
     41 C          64.7163   92.0649   11.0218 C.ar    1  UNL1        0.0294
     42 C          63.4870   91.2896   10.6507 C.ar    1  UNL1        0.1377
     43 F          62.9352   91.3799    9.2588 F       1  UNL1       -0.2044
@<TRIPOS>BOND
     1    34    35    1
     2    35    28    1
     3    28    29   ar
     4    29    30   ar
     5    30    31   ar
     6    31    32   ar
     7    32    22    1
     8    22    23   ar
     9    23    24   ar
    10    24    25   ar
    11    25    21    1
    12    21     1    1
    13     1     2    1
    14     2     3    1
    15     3     4    1
    16     4     5    1
    17     5     6    1
    18     4     7    1
    19     7     8    2
    20     7     9   am
    21     9    13    1
    22    13    14   ar
    23    14    15   ar
    24    15    16   ar
    25    16    17   ar
    26    17    19    1
    27    19    20    1
    28    17    18   ar
    29     9    10   am
    30    10    11    2
    31    10    12   am
    32    12    36    1
    33    36    37    1
    34    37    38   ar
    35    38    39   ar
    36    39    40   ar
    37    40    41   ar
    38    41    42   ar
    39    42    43    1
    40    25    26   ar
    41    26    27   ar
    42    32    33   ar
    43    33    28   ar
    44    27    22   ar
    45     6     1    1
    46    18    13   ar
    47    42    37   ar
    48    12     4    1
@<TRIPOS>MOLECULE
*****
 43 48 0 0 0
SMALL
GASTEIGER

@<TRIPOS>ATOM
      1 N          59.8763   88.8714    8.1822 N.3     1  UNL1       -0.2688
      2 C          60.1589   87.5544    8.8422 C.3     1  UNL1        0.0745
      3 C          61.0697   87.4921   10.0324 C.3     1  UNL1        0.0446
      4 C          61.6978   88.7469   10.5626 C.3     1  UNL1        0.1341
      5 C          61.4152   90.0638    9.9026 C.3     1  UNL1        0.0446
      6 C          60.5044   90.1261    8.7125 C.3     1  UNL1        0.0745
      7 C          62.3945   89.9115   11.2016 C.2     1  UNL1        0.2525
      8 O          62.3028   91.3428   10.7626 O.2     1  UNL1       -0.2724
      9 N          63.1992   89.3934   12.3568 N.am    1  UNL1       -0.1909
     10 C          62.9997   87.9085   12.4317 C.2     1  UNL1        0.3173
     11 O          63.6192   86.9854   13.4385 O.2     1  UNL1       -0.2516
     12 N          62.0719   87.5090   11.3228 N.am    1  UNL1       -0.2544
     13 C          64.0532   90.2157   13.2756 C.ar    1  UNL1        0.0652
     14 C          63.9548   90.0269   14.7603 C.ar    1  UNL1        0.0156
     15 C          64.8089   90.8492   15.6792 C.ar    1  UNL1        0.0044
     16 C          65.7614   91.8604   15.1133 C.ar    1  UNL1        0.0370
     17 C          65.8597   92.0492   13.6285 C.ar    1  UNL1        0.1400
     18 C          65.0057   91.2269   12.7096 C.ar    1  UNL1        0.0522
     19 O          66.8122   93.0604   13.0625 O.3     1  UNL1       -0.4714
     20 C          66.3572   93.9973   11.9830 C.3     1  UNL1        0.2525
     21 C          58.9655   88.9337    6.9920 C.3     1  UNL1        0.0991
     22 C          59.5753   92.1026    3.8557 C.ar    1  UNL1        0.0016
     23 C          60.7474   91.3197    4.3687 C.ar    1  UNL1       -0.0002
     24 C          60.5442   90.2634    5.4141 C.ar    1  UNL1       -0.0029
     25 C          59.1687   89.9900    5.9466 C.ar    1  UNL1       -0.0061
     26 C          57.9966   90.7729    5.4335 C.ar    1  UNL1       -0.0029
     27 C          58.1999   91.8292    4.3880 C.ar    1  UNL1       -0.0002
     28 C          59.9442   93.8483    0.3108 C.ar    1  UNL1        0.1578
     29 C          60.1850   95.2714    0.7193 C.ar    1  UNL1        0.1356
     30 N          60.2226   95.6382    2.1732 N.ar    1  UNL1       -0.2391
     31 C          60.0194   94.5819    3.2188 C.ar    1  UNL1        0.0991
     32 C          59.7785   93.1588    2.8102 C.ar    1  UNL1        0.0222
     33 C          59.7410   92.7921    1.3562 C.ar    1  UNL1        0.0401
     34 C          58.5896   93.3353   -1.8460 C.3     1  UNL1        0.2525
     35 O          59.9067   93.4815   -1.1432 O.3     1  UNL1       -0.4699
     36 C          61.6007   86.1162   11.0263 C.3     1  UNL1        0.1243
     37 C          62.5508   84.9616   11.1458 C.ar    1  UNL1        0.0252
     38 C          62.7173   84.2605   12.4614 C.ar    1  UNL1       -0.0004
     39 C          63.6674   83.1059   12.5810 C.ar    1  UNL1       -0.0001
     40 C          64.4510   82.6524   11.3851 C.ar    1  UNL1        0.0023
     41 C          64.2845   83.3535   10.0695 C.ar    1  UNL1        0.0294
     42 C          63.3345   84.5081    9.9499 C.ar    1  UNL1        0.1377
     43 F          63.1680   85.2092    8.6343 F       1  UNL1       -0.2044
@<TRIPOS>BOND
     1    34    35    1
     2    35    28    1
     3    28    29   ar
     4    29    30   ar
     5    30    31   ar
     6    31    32   ar
     7    32    22    1
     8    22    23   ar
     9    23    24   ar
    10    24    25   ar
    11    25    21    1
    12    21     1    1
    13     1     2    1
    14     2     3    1
    15     3     4    1
    16     4     5    1
    17     5     6    1
    18     4     7    1
    19     7     8    2
    20     7     9   am
    21     9    13    1
    22    13    14   ar
    23    14    15   ar
    24    15    16   ar
    25    16    17   ar
    26    17    19    1
    27    19    20    1
    28    17    18   ar
    29     9    10   am
    30    10    11    2
    31    10    12   am
    32    12    36    1
    33    36    37    1
    34    37    38   ar
    35    38    39   ar
    36    39    40   ar
    37    40    41   ar
    38    41    42   ar
    39    42    43    1
    40    25    26   ar
    41    26    27   ar
    42    32    33   ar
    43    33    28   ar
    44    27    22   ar
    45     6     1    1
    46    18    13   ar
    47    42    37   ar
    48    12     4    1
@<TRIPOS>MOLECULE
*****
 43 48 0 0 0
SMALL
GASTEIGER

@<TRIPOS>ATOM
      1 N          59.8640   88.9726    8.1927 N.3     1  UNL1       -0.2688
      2 C          60.1576   87.6193    8.7691 C.3     1  UNL1        0.0745
      3 C          61.0317   87.4940    9.9815 C.3     1  UNL1        0.0446
      4 C          61.6123   88.7221   10.6177 C.3     1  UNL1        0.1341
      5 C          61.3188   90.0755   10.0413 C.3     1  UNL1        0.0446
      6 C          60.4447   90.2007    8.8288 C.3     1  UNL1        0.0745
      7 C          62.2602   89.8543   11.3583 C.2     1  UNL1        0.2525
      8 O          62.1477   91.3104   11.0164 O.2     1  UNL1       -0.2724
      9 N          63.0404   89.2745   12.5009 N.am    1  UNL1       -0.1909
     10 C          62.8746   87.7841   12.4663 C.2     1  UNL1        0.3173
     11 O          63.4843   86.8067   13.4269 O.2     1  UNL1       -0.2516
     12 N          61.9920   87.4427   11.3025 N.am    1  UNL1       -0.2544
     13 C          63.8450   90.0492   13.5021 C.ar    1  UNL1        0.0652
     14 C          63.4267   90.0745   14.9422 C.ar    1  UNL1        0.0156
     15 C          64.2313   90.8492   15.9435 C.ar    1  UNL1        0.0044
     16 C          65.4542   91.5986   15.5045 C.ar    1  UNL1        0.0370
     17 C          65.8726   91.5733   14.0642 C.ar    1  UNL1        0.1400
     18 C          65.0680   90.7986   13.0630 C.ar    1  UNL1        0.0522
     19 O          67.0956   92.3226   13.6251 O.3     1  UNL1       -0.4714
     20 C          67.9721   92.9899   14.6432 C.3     1  UNL1        0.2525
     21 C          58.9899   89.0980    6.9801 C.3     1  UNL1        0.0991
     22 C          60.0679   92.0064    3.7200 C.ar    1  UNL1        0.0016
     23 C          58.6517   91.9155    4.2058 C.ar    1  UNL1       -0.0002
     24 C          58.2923   90.9460    5.2925 C.ar    1  UNL1       -0.0029
     25 C          59.3492   90.0674    5.8934 C.ar    1  UNL1       -0.0061
     26 C          60.7655   90.1583    5.4076 C.ar    1  UNL1       -0.0029
     27 C          61.1248   91.1278    4.3209 C.ar    1  UNL1       -0.0002
     28 C          62.2050   94.4094    1.3944 C.ar    1  UNL1        0.1578
     29 C          61.1461   94.9148    0.4598 C.ar    1  UNL1        0.1356
     30 N          59.7278   94.4507    0.6120 N.ar    1  UNL1       -0.2391
     31 C          59.3684   93.4812    1.6987 C.ar    1  UNL1        0.0991
     32 C          60.4273   92.9758    2.6333 C.ar    1  UNL1        0.0222
     33 C          61.8456   93.4400    2.4811 C.ar    1  UNL1        0.0401
     34 C          64.6996   93.8914    0.8858 C.3     1  UNL1        0.2525
     35 O          63.6232   94.8735    1.2422 O.3     1  UNL1       -0.4699
     36 C          61.5643   86.0640   10.8950 C.3     1  UNL1        0.1243
     37 C          62.5386   84.9255   10.9632 C.ar    1  UNL1        0.0252
     38 C          63.3603   84.5686    9.7601 C.ar    1  UNL1       -0.0004
     39 C          64.3347   83.4302    9.8282 C.ar    1  UNL1       -0.0001
     40 C          64.4873   82.6486   11.0993 C.ar    1  UNL1        0.0023
     41 C          63.6656   83.0055   12.3024 C.ar    1  UNL1        0.0294
     42 C          62.6912   84.1440   12.2343 C.ar    1  UNL1        0.1377
     43 F          61.8695   84.5008   13.4374 F       1  UNL1       -0.2044
@<TRIPOS>BOND
     1    34    35    1
     2    35    28    1
     3    28    29   ar
     4    29    30   ar
     5    30    31   ar
     6    31    32   ar
     7    32    22    1
     8    22    23   ar
     9    23    24   ar
    10    24    25   ar
    11    25    21    1
    12    21     1    1
    13     1     2    1
    14     2     3    1
    15     3     4    1
    16     4     5    1
    17     5     6    1
    18     4     7    1
    19     7     8    2
    20     7     9   am
    21     9    13    1
    22    13    14   ar
    23    14    15   ar
    24    15    16   ar
    25    16    17   ar
    26    17    19    1
    27    19    20    1
    28    17    18   ar
    29     9    10   am
    30    10    11    2
    31    10    12   am
    32    12    36    1
    33    36    37    1
    34    37    38   ar
    35    38    39   ar
    36    39    40   ar
    37    40    41   ar
    38    41    42   ar
    39    42    43    1
    40    25    26   ar
    41    26    27   ar
    42    32    33   ar
    43    33    28   ar
    44    27    22   ar
    45     6     1    1
    46    18    13   ar
    47    42    37   ar
    48    12     4    1
@<TRIPOS>MOLECULE
*****
 43 48 0 0 0
SMALL
GASTEIGER

@<TRIPOS>ATOM
      1 N          64.2382   88.4036   14.3487 N.3     1  UNL1       -0.2688
      2 C          63.6262   88.4302   12.9795 C.3     1  UNL1        0.0745
      3 C          63.1425   87.1578   12.3494 C.3     1  UNL1        0.0446
      4 C          63.2709   85.8588   13.0885 C.3     1  UNL1        0.1341
      5 C          63.8828   85.8323   14.4577 C.3     1  UNL1        0.0446
      6 C          64.3665   87.1047   15.0878 C.3     1  UNL1        0.0745
      7 C          63.3324   84.4918   13.7029 C.2     1  UNL1        0.2525
      8 O          63.8883   84.1572   15.0553 O.2     1  UNL1       -0.2724
      9 N          62.7403   83.5181   12.7275 N.am    1  UNL1       -0.1909
     10 C          62.3128   84.2834   11.5102 C.2     1  UNL1        0.3173
     11 O          61.6703   83.7038   10.2850 O.2     1  UNL1       -0.2516
     12 N          62.6407   85.7300   11.7333 N.am    1  UNL1       -0.2544
     13 C          62.6002   82.0389   12.9332 C.ar    1  UNL1        0.0652
     14 C          62.2544   81.4997   14.2895 C.ar    1  UNL1        0.0156
     15 C          62.1143   80.0205   14.4952 C.ar    1  UNL1        0.0044
     16 C          62.3201   79.0805   13.3446 C.ar    1  UNL1        0.0370
     17 C          62.6659   79.6197   11.9883 C.ar    1  UNL1        0.1400
     18 C          62.8059   81.0989   11.7825 C.ar    1  UNL1        0.0522
     19 O          62.8716   78.6797   10.8376 O.3     1  UNL1       -0.4714
     20 C          62.7525   79.1812    9.4289 C.3     1  UNL1        0.2525
     21 C          64.7219   89.6761   14.9788 C.3     1  UNL1        0.0991
     22 C          65.8443   93.1830   12.3920 C.ar    1  UNL1        0.0016
     23 C          66.6350   92.8810   13.6304 C.ar    1  UNL1       -0.0002
     24 C          66.2609   91.7121   14.4927 C.ar    1  UNL1       -0.0029
     25 C          65.0960   90.8450   14.1166 C.ar    1  UNL1       -0.0061
     26 C          64.3053   91.1470   12.8782 C.ar    1  UNL1       -0.0029
     27 C          64.6794   92.3160   12.0159 C.ar    1  UNL1       -0.0002
     28 C          66.6895   95.3549    9.1798 C.ar    1  UNL1        0.1578
     29 C          66.9666   96.6899    9.8051 C.ar    1  UNL1        0.1356
     30 N          66.8697   96.8559   11.2927 N.ar    1  UNL1       -0.2391
     31 C          66.4955   95.6869   12.1551 C.ar    1  UNL1        0.0991
     32 C          66.2184   94.3519   11.5298 C.ar    1  UNL1        0.0222
     33 C          66.3154   94.1860   10.0421 C.ar    1  UNL1        0.0401
     34 C          66.1640   96.2057    6.7819 C.3     1  UNL1        0.2525
     35 O          66.7865   95.1889    7.6922 O.3     1  UNL1       -0.4699
     36 C          62.3837   86.8510   10.7704 C.3     1  UNL1        0.1243
     37 C          61.4734   86.6382    9.5973 C.ar    1  UNL1        0.0252
     38 C          60.0743   87.1782    9.6262 C.ar    1  UNL1       -0.0004
     39 C          59.1639   86.9655    8.4531 C.ar    1  UNL1       -0.0001
     40 C          59.6527   86.2127    7.2513 C.ar    1  UNL1        0.0023
     41 C          61.0518   85.6728    7.2224 C.ar    1  UNL1        0.0294
     42 C          61.9622   85.8855    8.3955 C.ar    1  UNL1        0.1377
     43 F          63.3613   85.3455    8.3666 F       1  UNL1       -0.2044
@<TRIPOS>BOND
     1    34    35    1
     2    35    28    1
     3    28    29   ar
     4    29    30   ar
     5    30    31   ar
     6    31    32   ar
     7    32    22    1
     8    22    23   ar
     9    23    24   ar
    10    24    25   ar
    11    25    21    1
    12    21     1    1
    13     1     2    1
    14     2     3    1
    15     3     4    1
    16     4     5    1
    17     5     6    1
    18     4     7    1
    19     7     8    2
    20     7     9   am
    21     9    13    1
    22    13    14   ar
    23    14    15   ar
    24    15    16   ar
    25    16    17   ar
    26    17    19    1
    27    19    20    1
    28    17    18   ar
    29     9    10   am
    30    10    11    2
    31    10    12   am
    32    12    36    1
    33    36    37    1
    34    37    38   ar
    35    38    39   ar
    36    39    40   ar
    37    40    41   ar
    38    41    42   ar
    39    42    43    1
    40    25    26   ar
    41    26    27   ar
    42    32    33   ar
    43    33    28   ar
    44    27    22   ar
    45     6     1    1
    46    18    13   ar
    47    42    37   ar
    48    12     4    1
