@<TRIPOS>MOLECULE
*****
 40 45 0 0 0
SMALL
GASTEIGER

@<TRIPOS>ATOM
      1 C          62.8827   85.2024    9.8018 C.3     1  UNL1        0.0749
      2 C          62.7201   86.6452   10.1782 C.3     1  UNL1        0.0444
      3 C          61.6770   87.4839    9.5012 C.ar    1  UNL1       -0.0101
      4 C          60.7964   86.8798    8.4478 C.ar    1  UNL1       -0.0091
      5 C          59.7532   87.7186    7.7708 C.ar    1  UNL1       -0.0032
      6 C          59.5907   89.1615    8.1472 C.ar    1  UNL1        0.0010
      7 C          60.4712   89.7656    9.2006 C.ar    1  UNL1        0.0142
      8 C          61.5144   88.9269    9.8776 C.ar    1  UNL1        0.0437
      9 C          60.9589   85.4370    8.0714 C.3     1  UNL1        0.0954
     10 N          62.0021   84.5982    8.7484 N.3     1  UNL1       -0.2934
     11 H          62.6183   84.2466    8.0156 H       1  UNL1        0.1236
     12 N          62.3950   89.5310   10.9310 N.pl3   1  UNL1       -0.3043
     13 C          62.6174   88.8092   12.2270 C.3     1  UNL1        0.1122
     14 C          63.4980   89.4133   13.2803 C.3     1  UNL1        0.1122
     15 N          64.1561   90.7392   13.0377 N.pl3   1  UNL1       -0.3041
     16 C          63.9336   91.4610   11.7418 C.3     1  UNL1        0.1122
     17 C          63.0531   90.8569   10.6884 C.3     1  UNL1        0.1122
     18 C          65.0367   91.3434   14.0911 C.ar    1  UNL1        0.0479
     19 C          64.4680   91.6914   15.4349 C.ar    1  UNL1        0.0145
     20 C          65.3486   92.2955   16.4882 C.ar    1  UNL1        0.0012
     21 C          66.7979   92.5516   16.1979 C.ar    1  UNL1        0.0039
     22 C          67.3664   92.2036   14.8542 C.ar    1  UNL1        0.0726
     23 C          66.4859   91.5995   13.8008 C.ar    1  UNL1        0.0184
     24 C          68.8157   92.4597   14.5638 C.3     1  UNL1        0.4186
     25 F          70.2648   92.7157   14.2734 F       1  UNL1       -0.1659
     26 F          68.7071   91.6483   13.3069 F       1  UNL1       -0.1659
     27 F          68.9242   93.2710   15.8207 F       1  UNL1       -0.1659
     28 C          63.9258   84.3636   10.4788 C.3     1  UNL1        0.0886
     29 C          63.9698   81.8359    9.8794 C.3     1  UNL1        0.0899
     30 N          63.6258   82.9382   10.8369 N.3     1  UNL1       -0.2667
     31 C          62.9817   82.6150   12.1525 C.3     1  UNL1        0.0978
     32 C          62.1572   81.3705   12.2982 C.3     1  UNL1        0.0224
     33 C          61.5131   81.0473   13.6138 C.3     1  UNL1        0.0065
     34 C          61.6935   81.9687   14.7836 C.3     1  UNL1        0.0277
     35 C          62.5181   83.2133   14.6379 C.ar    1  UNL1       -0.0073
     36 C          62.6985   84.1346   15.8077 C.ar    1  UNL1       -0.0015
     37 C          63.5230   85.3791   15.6620 C.ar    1  UNL1        0.0203
     38 C          64.1671   85.7023   14.3464 C.ar    1  UNL1        0.0985
     39 N          63.9867   84.7810   13.1766 N.ar    1  UNL1       -0.2471
     40 C          63.1622   83.5364   13.3223 C.ar    1  UNL1        0.0695
@<TRIPOS>BOND
     1    29    30    1
     2    30    28    1
     3     1    28    1
     4     1     2    1
     5     2     3    1
     6     3     4   ar
     7     4     5   ar
     8     5     6   ar
     9     6     7   ar
    10     7     8   ar
    11     8    12    1
    12    12    13    1
    13    13    14    1
    14    14    15    1
    15    15    18    1
    16    18    19   ar
    17    19    20   ar
    18    20    21   ar
    19    21    22   ar
    20    22    24    1
    21    24    25    1
    22    24    26    1
    23    24    27    1
    24    22    23   ar
    25    15    16    1
    26    16    17    1
    27     4     9    1
    28     9    10    1
    29    31    30    1
    30    31    32    1
    31    32    33    1
    32    33    34    1
    33    34    35    1
    34    35    36   ar
    35    36    37   ar
    36    37    38   ar
    37    38    39   ar
    38    39    40   ar
    39    10     1    1
    40    40    31    1
    41     8     3   ar
    42    17    12    1
    43    40    35   ar
    44    23    18   ar
    45    10    11    1
@<TRIPOS>MOLECULE
*****
 40 45 0 0 0
SMALL
GASTEIGER

@<TRIPOS>ATOM
      1 C          63.8481   85.2046   13.6855 C.3     1  UNL1        0.0749
      2 C          63.9751   86.6518   14.0590 C.3     1  UNL1        0.0444
      3 C          63.5636   87.1125   15.4259 C.ar    1  UNL1       -0.0101
      4 C          63.0252   86.1260   16.4193 C.ar    1  UNL1       -0.0091
      5 C          62.6137   86.5867   17.7863 C.ar    1  UNL1       -0.0032
      6 C          62.7407   88.0339   18.1597 C.ar    1  UNL1        0.0010
      7 C          63.2791   89.0204   17.1663 C.ar    1  UNL1        0.0142
      8 C          63.6906   88.5597   15.7994 C.ar    1  UNL1        0.0437
      9 C          62.8982   84.6788   16.0459 C.3     1  UNL1        0.0954
     10 N          63.3096   84.2181   14.6790 N.3     1  UNL1       -0.2934
     11 H          62.4878   83.7898   14.2528 H       1  UNL1        0.1236
     12 N          64.2290   89.5462   14.8060 N.pl3   1  UNL1       -0.3043
     13 C          65.5418   90.2260   15.0601 C.3     1  UNL1        0.1122
     14 C          66.0803   91.2125   14.0667 C.3     1  UNL1        0.1122
     15 N          65.3059   91.5192   12.8191 N.pl3   1  UNL1       -0.3041
     16 C          63.9932   90.8394   12.5650 C.3     1  UNL1        0.1122
     17 C          63.4548   89.8529   13.5584 C.3     1  UNL1        0.1122
     18 C          65.8444   92.5057   11.8257 C.ar    1  UNL1        0.0479
     19 C          65.3782   93.9311   11.8561 C.ar    1  UNL1        0.0145
     20 C          65.9167   94.9176   10.8627 C.ar    1  UNL1        0.0012
     21 C          66.9213   94.4787    9.8388 C.ar    1  UNL1        0.0039
     22 C          67.3874   93.0533    9.8084 C.ar    1  UNL1        0.0726
     23 C          66.8489   92.0668   10.8019 C.ar    1  UNL1        0.0184
     24 C          68.3920   92.6143    8.7846 C.3     1  UNL1        0.4186
     25 F          69.3965   92.1753    7.7609 F       1  UNL1       -0.1659
     26 F          68.7611   91.4448    9.6483 F       1  UNL1       -0.1659
     27 F          68.0229   93.7838    7.9209 F       1  UNL1       -0.1659
     28 C          64.2596   84.7439   12.3186 C.3     1  UNL1        0.0886
     29 C          62.7452   82.6860   11.8474 C.3     1  UNL1        0.0899
     30 N          63.2759   84.0287   11.4405 N.3     1  UNL1       -0.2667
     31 C          62.8230   84.6563   10.1556 C.3     1  UNL1        0.0978
     32 C          63.3027   84.1095    8.8439 C.3     1  UNL1        0.0224
     33 C          62.8498   84.7370    7.5589 C.3     1  UNL1        0.0065
     34 C          61.9170   85.9114    7.5858 C.3     1  UNL1        0.0277
     35 C          61.4372   86.4583    8.8976 C.ar    1  UNL1       -0.0073
     36 C          60.5045   87.6327    8.9244 C.ar    1  UNL1       -0.0015
     37 C          60.0247   88.1795   10.2362 C.ar    1  UNL1        0.0203
     38 C          60.4777   87.5520   11.5211 C.ar    1  UNL1        0.0985
     39 N          61.4104   86.3776   11.4943 N.ar    1  UNL1       -0.2471
     40 C          61.8902   85.8307   10.1825 C.ar    1  UNL1        0.0695
@<TRIPOS>BOND
     1    29    30    1
     2    30    28    1
     3     1    28    1
     4     1     2    1
     5     2     3    1
     6     3     4   ar
     7     4     5   ar
     8     5     6   ar
     9     6     7   ar
    10     7     8   ar
    11     8    12    1
    12    12    13    1
    13    13    14    1
    14    14    15    1
    15    15    18    1
    16    18    19   ar
    17    19    20   ar
    18    20    21   ar
    19    21    22   ar
    20    22    24    1
    21    24    25    1
    22    24    26    1
    23    24    27    1
    24    22    23   ar
    25    15    16    1
    26    16    17    1
    27     4     9    1
    28     9    10    1
    29    31    30    1
    30    31    32    1
    31    32    33    1
    32    33    34    1
    33    34    35    1
    34    35    36   ar
    35    36    37   ar
    36    37    38   ar
    37    38    39   ar
    38    39    40   ar
    39    10     1    1
    40    40    31    1
    41     8     3   ar
    42    17    12    1
    43    40    35   ar
    44    23    18   ar
    45    10    11    1
@<TRIPOS>MOLECULE
*****
 40 45 0 0 0
SMALL
GASTEIGER

@<TRIPOS>ATOM
      1 C          62.9577   85.2532    8.8651 C.3     1  UNL1        0.0749
      2 C          62.6567   86.6146    9.4181 C.3     1  UNL1        0.0444
      3 C          61.4844   87.3928    8.8982 C.ar    1  UNL1       -0.0101
      4 C          60.6133   86.8095    7.8254 C.ar    1  UNL1       -0.0091
      5 C          59.4410   87.5878    7.3056 C.ar    1  UNL1       -0.0032
      6 C          59.1400   88.9492    7.8585 C.ar    1  UNL1        0.0010
      7 C          60.0111   89.5325    8.9314 C.ar    1  UNL1        0.0142
      8 C          61.1833   88.7543    9.4512 C.ar    1  UNL1        0.0437
      9 C          60.9144   85.4481    7.2725 C.3     1  UNL1        0.0954
     10 N          62.0866   84.6699    7.7923 N.3     1  UNL1       -0.2934
     11 H          62.6912   84.4794    6.9932 H       1  UNL1        0.1236
     12 N          62.0544   89.3375   10.5240 N.pl3   1  UNL1       -0.3043
     13 C          62.6856   90.6842   10.3281 C.3     1  UNL1        0.1122
     14 C          63.5568   91.2674   11.4009 C.3     1  UNL1        0.1122
     15 N          63.7967   90.5040   12.6697 N.pl3   1  UNL1       -0.3041
     16 C          63.1656   89.1575   12.8656 C.3     1  UNL1        0.1122
     17 C          62.2944   88.5742   11.7928 C.3     1  UNL1        0.1122
     18 C          64.6679   91.0873   13.7425 C.ar    1  UNL1        0.0479
     19 C          64.0850   91.4182   15.0845 C.ar    1  UNL1        0.0145
     20 C          64.9562   92.0015   16.1573 C.ar    1  UNL1        0.0012
     21 C          66.4101   92.2538   15.8881 C.ar    1  UNL1        0.0039
     22 C          66.9929   91.9228   14.5462 C.ar    1  UNL1        0.0726
     23 C          66.1218   91.3396   13.4734 C.ar    1  UNL1        0.0184
     24 C          68.4469   92.1751   14.2770 C.3     1  UNL1        0.4186
     25 F          69.9008   92.4274   14.0078 F       1  UNL1       -0.1659
     26 F          68.2800   91.6487   12.8824 F       1  UNL1       -0.1659
     27 F          68.6138   92.7015   15.6716 F       1  UNL1       -0.1659
     28 C          64.1300   84.4749    9.3850 C.3     1  UNL1        0.0886
     29 C          64.1931   81.9170    9.8357 C.3     1  UNL1        0.0899
     30 N          63.9092   83.3125   10.3069 N.3     1  UNL1       -0.2667
     31 C          63.4043   83.5456   11.7001 C.3     1  UNL1        0.0978
     32 C          63.4436   84.9235   12.2913 C.3     1  UNL1        0.0224
     33 C          62.9388   85.1566   13.6845 C.3     1  UNL1        0.0065
     34 C          62.3947   84.0117   14.4864 C.3     1  UNL1        0.0277
     35 C          62.3555   82.6336   13.8951 C.ar    1  UNL1       -0.0073
     36 C          61.8114   81.4887   14.6970 C.ar    1  UNL1       -0.0015
     37 C          61.7721   80.1107   14.1058 C.ar    1  UNL1        0.0203
     38 C          62.2770   79.8777   12.7126 C.ar    1  UNL1        0.0985
     39 N          62.8210   81.0226   11.9107 N.ar    1  UNL1       -0.2471
     40 C          62.8603   82.4006   12.5020 C.ar    1  UNL1        0.0695
@<TRIPOS>BOND
     1    29    30    1
     2    30    28    1
     3     1    28    1
     4     1     2    1
     5     2     3    1
     6     3     4   ar
     7     4     5   ar
     8     5     6   ar
     9     6     7   ar
    10     7     8   ar
    11     8    12    1
    12    12    13    1
    13    13    14    1
    14    14    15    1
    15    15    18    1
    16    18    19   ar
    17    19    20   ar
    18    20    21   ar
    19    21    22   ar
    20    22    24    1
    21    24    25    1
    22    24    26    1
    23    24    27    1
    24    22    23   ar
    25    15    16    1
    26    16    17    1
    27     4     9    1
    28     9    10    1
    29    31    30    1
    30    31    32    1
    31    32    33    1
    32    33    34    1
    33    34    35    1
    34    35    36   ar
    35    36    37   ar
    36    37    38   ar
    37    38    39   ar
    38    39    40   ar
    39    10     1    1
    40    40    31    1
    41     8     3   ar
    42    17    12    1
    43    40    35   ar
    44    23    18   ar
    45    10    11    1
@<TRIPOS>MOLECULE
*****
 40 45 0 0 0
SMALL
GASTEIGER

@<TRIPOS>ATOM
      1 C          63.3325   88.8329   13.3622 C.3     1  UNL1        0.0749
      2 C          62.7003   88.2333   12.1413 C.3     1  UNL1        0.0444
      3 C          62.7376   86.7488   11.9297 C.ar    1  UNL1       -0.0101
      4 C          63.4071   85.8639   12.9390 C.ar    1  UNL1       -0.0091
      5 C          63.4444   84.3793   12.7274 C.ar    1  UNL1       -0.0032
      6 C          62.8122   83.7797   11.5064 C.ar    1  UNL1        0.0010
      7 C          62.1427   84.6646   10.4971 C.ar    1  UNL1        0.0142
      8 C          62.1054   86.1491   10.7087 C.ar    1  UNL1        0.0437
      9 C          64.0393   86.4635   14.1599 C.3     1  UNL1        0.0954
     10 N          64.0020   87.9480   14.3715 N.3     1  UNL1       -0.2934
     11 H          64.9707   88.2601   14.4402 H       1  UNL1        0.1236
     12 N          61.4359   87.0339    9.6994 N.pl3   1  UNL1       -0.3043
     13 C          61.5159   88.5253    9.8392 C.3     1  UNL1        0.1122
     14 C          60.8464   89.4102    8.8298 C.3     1  UNL1        0.1122
     15 N          60.0969   88.8037    7.6807 N.pl3   1  UNL1       -0.3041
     16 C          60.0169   87.3124    7.5409 C.3     1  UNL1        0.1122
     17 C          60.6864   86.4275    8.5503 C.3     1  UNL1        0.1122
     18 C          59.4274   89.6886    6.6713 C.ar    1  UNL1        0.0479
     19 C          57.9302   89.7604    6.6128 C.ar    1  UNL1        0.0145
     20 C          57.2607   90.6452    5.6034 C.ar    1  UNL1        0.0012
     21 C          58.0884   91.4583    4.6527 C.ar    1  UNL1        0.0039
     22 C          59.5855   91.3865    4.7113 C.ar    1  UNL1        0.0726
     23 C          60.2550   90.5017    5.7206 C.ar    1  UNL1        0.0184
     24 C          60.4132   92.1996    3.7605 C.3     1  UNL1        0.4186
     25 F          61.2409   93.0127    2.8098 F       1  UNL1       -0.1659
     26 F          61.6571   91.5444    4.2832 F       1  UNL1       -0.1659
     27 F          59.1692   92.8548    3.2378 F       1  UNL1       -0.1659
     28 C          63.2953   90.3175   13.5738 C.3     1  UNL1        0.0886
     29 C          63.6983   91.1380   16.0058 C.3     1  UNL1        0.0899
     30 N          64.1870   90.9514   14.5999 N.3     1  UNL1       -0.2667
     31 C          65.5675   91.3987   14.2202 C.3     1  UNL1        0.0978
     32 C          66.6899   91.2893   15.2092 C.3     1  UNL1        0.0224
     33 C          68.0704   91.7366   14.8295 C.3     1  UNL1        0.0065
     34 C          68.3285   92.2934   13.4608 C.3     1  UNL1        0.0277
     35 C          67.2060   92.4028   12.4717 C.ar    1  UNL1       -0.0073
     36 C          67.4641   92.9596   11.1030 C.ar    1  UNL1       -0.0015
     37 C          66.3416   93.0690   10.1140 C.ar    1  UNL1        0.0203
     38 C          64.9612   92.6217   10.4937 C.ar    1  UNL1        0.0985
     39 N          64.7031   92.0649   11.8624 N.ar    1  UNL1       -0.2471
     40 C          65.8255   91.9555   12.8514 C.ar    1  UNL1        0.0695
@<TRIPOS>BOND
     1    29    30    1
     2    30    28    1
     3     1    28    1
     4     1     2    1
     5     2     3    1
     6     3     4   ar
     7     4     5   ar
     8     5     6   ar
     9     6     7   ar
    10     7     8   ar
    11     8    12    1
    12    12    13    1
    13    13    14    1
    14    14    15    1
    15    15    18    1
    16    18    19   ar
    17    19    20   ar
    18    20    21   ar
    19    21    22   ar
    20    22    24    1
    21    24    25    1
    22    24    26    1
    23    24    27    1
    24    22    23   ar
    25    15    16    1
    26    16    17    1
    27     4     9    1
    28     9    10    1
    29    31    30    1
    30    31    32    1
    31    32    33    1
    32    33    34    1
    33    34    35    1
    34    35    36   ar
    35    36    37   ar
    36    37    38   ar
    37    38    39   ar
    38    39    40   ar
    39    10     1    1
    40    40    31    1
    41     8     3   ar
    42    17    12    1
    43    40    35   ar
    44    23    18   ar
    45    10    11    1
@<TRIPOS>MOLECULE
*****
 40 45 0 0 0
SMALL
GASTEIGER

@<TRIPOS>ATOM
      1 C          63.3354   88.3392   13.3031 C.3     1  UNL1        0.0749
      2 C          62.6969   87.8020   12.0566 C.3     1  UNL1        0.0444
      3 C          62.7279   86.3294   11.7729 C.ar    1  UNL1       -0.0101
      4 C          63.3974   85.3940   12.7356 C.ar    1  UNL1       -0.0091
      5 C          63.4283   83.9214   12.4518 C.ar    1  UNL1       -0.0032
      6 C          62.7898   83.3842   11.2053 C.ar    1  UNL1        0.0010
      7 C          62.1203   84.3196   10.2426 C.ar    1  UNL1        0.0142
      8 C          62.0894   85.7922   10.5264 C.ar    1  UNL1        0.0437
      9 C          64.0359   85.9312   13.9821 C.3     1  UNL1        0.0954
     10 N          64.0049   87.4038   14.2658 N.3     1  UNL1       -0.2934
     11 H          64.9750   87.7086   14.3462 H       1  UNL1        0.1236
     12 N          61.4199   86.7276    9.5636 N.pl3   1  UNL1       -0.3043
     13 C          61.5449   88.2108    9.7493 C.3     1  UNL1        0.1122
     14 C          60.8755   89.1462    8.7865 C.3     1  UNL1        0.1122
     15 N          60.0809   88.5984    7.6382 N.pl3   1  UNL1       -0.3041
     16 C          59.9559   87.1152    7.4526 C.3     1  UNL1        0.1122
     17 C          60.6253   86.1798    8.4154 C.3     1  UNL1        0.1122
     18 C          59.4114   89.5338    6.6755 C.ar    1  UNL1        0.0479
     19 C          57.9153   89.6390    6.6496 C.ar    1  UNL1        0.0145
     20 C          57.2458   90.5743    5.6868 C.ar    1  UNL1        0.0012
     21 C          58.0724   91.4045    4.7501 C.ar    1  UNL1        0.0039
     22 C          59.5685   91.2993    4.7760 C.ar    1  UNL1        0.0726
     23 C          60.2380   90.3639    5.7387 C.ar    1  UNL1        0.0184
     24 C          60.3951   92.1295    3.8392 C.3     1  UNL1        0.4186
     25 F          61.2218   92.9596    2.9025 F       1  UNL1       -0.1659
     26 F          61.6411   91.4773    4.3607 F       1  UNL1       -0.1659
     27 F          59.1491   92.7818    3.3177 F       1  UNL1       -0.1659
     28 C          63.3044   89.8118   13.5869 C.3     1  UNL1        0.0886
     29 C          62.0484   90.8903   11.5845 C.3     1  UNL1        0.0899
     30 N          63.2674   90.7934   12.4533 N.3     1  UNL1       -0.2667
     31 C          64.4494   91.6782   12.1885 C.3     1  UNL1        0.0978
     32 C          64.7869   92.0780   10.7828 C.3     1  UNL1        0.0224
     33 C          65.9689   92.9628   10.5179 C.3     1  UNL1        0.0065
     34 C          66.8133   93.4478   11.6588 C.3     1  UNL1        0.0277
     35 C          66.4757   93.0481   13.0647 C.ar    1  UNL1       -0.0073
     36 C          67.3201   93.5331   14.2056 C.ar    1  UNL1       -0.0015
     37 C          66.9825   93.1333   15.6114 C.ar    1  UNL1        0.0203
     38 C          65.8006   92.2485   15.8762 C.ar    1  UNL1        0.0985
     39 N          64.9562   91.7635   14.7353 N.ar    1  UNL1       -0.2471
     40 C          65.2938   92.1633   13.3295 C.ar    1  UNL1        0.0695
@<TRIPOS>BOND
     1    29    30    1
     2    30    28    1
     3     1    28    1
     4     1     2    1
     5     2     3    1
     6     3     4   ar
     7     4     5   ar
     8     5     6   ar
     9     6     7   ar
    10     7     8   ar
    11     8    12    1
    12    12    13    1
    13    13    14    1
    14    14    15    1
    15    15    18    1
    16    18    19   ar
    17    19    20   ar
    18    20    21   ar
    19    21    22   ar
    20    22    24    1
    21    24    25    1
    22    24    26    1
    23    24    27    1
    24    22    23   ar
    25    15    16    1
    26    16    17    1
    27     4     9    1
    28     9    10    1
    29    31    30    1
    30    31    32    1
    31    32    33    1
    32    33    34    1
    33    34    35    1
    34    35    36   ar
    35    36    37   ar
    36    37    38   ar
    37    38    39   ar
    38    39    40   ar
    39    10     1    1
    40    40    31    1
    41     8     3   ar
    42    17    12    1
    43    40    35   ar
    44    23    18   ar
    45    10    11    1
@<TRIPOS>MOLECULE
*****
 40 45 0 0 0
SMALL
GASTEIGER

@<TRIPOS>ATOM
      1 C          62.7188   85.1146    9.5502 C.3     1  UNL1        0.0749
      2 C          62.4927   86.5867    9.7287 C.3     1  UNL1        0.0444
      3 C          61.3742   87.2677    8.9973 C.ar    1  UNL1       -0.0101
      4 C          60.4818   86.4768    8.0874 C.ar    1  UNL1       -0.0091
      5 C          59.3632   87.1579    7.3559 C.ar    1  UNL1       -0.0032
      6 C          59.1370   88.6299    7.5345 C.ar    1  UNL1        0.0010
      7 C          60.0295   89.4209    8.4444 C.ar    1  UNL1        0.0142
      8 C          61.1480   88.7399    9.1758 C.ar    1  UNL1        0.0437
      9 C          60.7079   85.0047    7.9089 C.3     1  UNL1        0.0954
     10 N          61.8264   84.3237    8.6403 N.3     1  UNL1       -0.2934
     11 H          62.4273   83.9018    7.9323 H       1  UNL1        0.1236
     12 N          62.0404   89.5308   10.0857 N.pl3   1  UNL1       -0.3043
     13 C          62.7108   90.7750    9.5830 C.3     1  UNL1        0.1122
     14 C          63.6032   91.5660   10.4929 C.3     1  UNL1        0.1122
     15 N          63.8252   91.1128   11.9056 N.pl3   1  UNL1       -0.3041
     16 C          63.1548   89.8687   12.4082 C.3     1  UNL1        0.1122
     17 C          62.2624   89.0777   11.4983 C.3     1  UNL1        0.1122
     18 C          64.7176   91.9038   12.8155 C.ar    1  UNL1        0.0479
     19 C          65.7156   92.8637   12.2387 C.ar    1  UNL1        0.0145
     20 C          66.6080   93.6546   13.1486 C.ar    1  UNL1        0.0012
     21 C          66.5024   93.4858   14.6353 C.ar    1  UNL1        0.0039
     22 C          65.5044   92.5259   15.2121 C.ar    1  UNL1        0.0726
     23 C          64.6120   91.7350   14.3022 C.ar    1  UNL1        0.0184
     24 C          65.3988   92.3571   16.6989 C.3     1  UNL1        0.4186
     25 F          65.2931   92.1882   18.1856 F       1  UNL1       -0.1659
     26 F          63.9593   91.9620   16.5517 F       1  UNL1       -0.1659
     27 F          66.8383   92.7521   16.8461 F       1  UNL1       -0.1659
     28 C          63.8374   84.4335   10.2816 C.3     1  UNL1        0.0886
     29 C          64.1825   81.9017    9.8114 C.3     1  UNL1        0.0899
     30 N          63.6939   83.0021   10.7062 N.3     1  UNL1       -0.2667
     31 C          63.0617   82.6708   12.0255 C.3     1  UNL1        0.0978
     32 C          62.2587   81.4131   12.1777 C.3     1  UNL1        0.0224
     33 C          61.6266   81.0819   13.4970 C.3     1  UNL1        0.0065
     34 C          61.7974   82.0084   14.6642 C.3     1  UNL1        0.0277
     35 C          62.6005   83.2662   14.5121 C.ar    1  UNL1       -0.0073
     36 C          62.7714   84.1927   15.6793 C.ar    1  UNL1       -0.0015
     37 C          63.5744   85.4504   15.5271 C.ar    1  UNL1        0.0203
     38 C          64.2065   85.7816   14.2077 C.ar    1  UNL1        0.0985
     39 N          64.0357   84.8551   13.0406 N.ar    1  UNL1       -0.2471
     40 C          63.2326   83.5974   13.1927 C.ar    1  UNL1        0.0695
@<TRIPOS>BOND
     1    29    30    1
     2    30    28    1
     3     1    28    1
     4     1     2    1
     5     2     3    1
     6     3     4   ar
     7     4     5   ar
     8     5     6   ar
     9     6     7   ar
    10     7     8   ar
    11     8    12    1
    12    12    13    1
    13    13    14    1
    14    14    15    1
    15    15    18    1
    16    18    19   ar
    17    19    20   ar
    18    20    21   ar
    19    21    22   ar
    20    22    24    1
    21    24    25    1
    22    24    26    1
    23    24    27    1
    24    22    23   ar
    25    15    16    1
    26    16    17    1
    27     4     9    1
    28     9    10    1
    29    31    30    1
    30    31    32    1
    31    32    33    1
    32    33    34    1
    33    34    35    1
    34    35    36   ar
    35    36    37   ar
    36    37    38   ar
    37    38    39   ar
    38    39    40   ar
    39    10     1    1
    40    40    31    1
    41     8     3   ar
    42    17    12    1
    43    40    35   ar
    44    23    18   ar
    45    10    11    1
@<TRIPOS>MOLECULE
*****
 40 45 0 0 0
SMALL
GASTEIGER

@<TRIPOS>ATOM
      1 C          62.4661   85.5666    8.9025 C.3     1  UNL1        0.0749
      2 C          62.2702   86.9492    9.4503 C.3     1  UNL1        0.0444
      3 C          61.1727   87.8197    8.9141 C.ar    1  UNL1       -0.0101
      4 C          60.2711   87.3077    7.8301 C.ar    1  UNL1       -0.0091
      5 C          59.1736   88.1784    7.2939 C.ar    1  UNL1       -0.0032
      6 C          58.9777   89.5609    7.8416 C.ar    1  UNL1        0.0010
      7 C          59.8792   90.0730    8.9256 C.ar    1  UNL1        0.0142
      8 C          60.9767   89.2024    9.4618 C.ar    1  UNL1        0.0437
      9 C          60.4670   85.9252    7.2823 C.3     1  UNL1        0.0954
     10 N          61.5645   85.0546    7.8185 N.3     1  UNL1       -0.2934
     11 H          62.1622   84.8137    7.0278 H       1  UNL1        0.1236
     12 N          61.8783   89.7144   10.5458 N.pl3   1  UNL1       -0.3043
     13 C          61.6679   89.2772   11.9652 C.3     1  UNL1        0.1122
     14 C          62.5695   89.7892   13.0492 C.3     1  UNL1        0.1122
     15 N          63.6815   90.7384   12.7137 N.pl3   1  UNL1       -0.3041
     16 C          63.8919   91.1756   11.2944 C.3     1  UNL1        0.1122
     17 C          62.9903   90.6636   10.2104 C.3     1  UNL1        0.1122
     18 C          64.5831   91.2504   13.7977 C.ar    1  UNL1        0.0479
     19 C          64.0491   91.4506   15.1851 C.ar    1  UNL1        0.0145
     20 C          64.9507   91.9626   16.2691 C.ar    1  UNL1        0.0012
     21 C          66.3862   92.2744   15.9657 C.ar    1  UNL1        0.0039
     22 C          66.9201   92.0743   14.5783 C.ar    1  UNL1        0.0726
     23 C          66.0185   91.5623   13.4943 C.ar    1  UNL1        0.0184
     24 C          68.3557   92.3861   14.2748 C.3     1  UNL1        0.4186
     25 F          69.7912   92.6980   13.9714 F       1  UNL1       -0.1659
     26 F          68.3835   93.3641   15.4118 F       1  UNL1       -0.1659
     27 F          68.3279   91.4082   13.1379 F       1  UNL1       -0.1659
     28 C          63.5637   84.6960    9.4387 C.3     1  UNL1        0.0886
     29 C          63.4840   84.8852   12.0287 C.3     1  UNL1        0.0899
     30 N          63.4186   84.0497   10.7845 N.3     1  UNL1       -0.2667
     31 C          63.2080   82.5681   10.8863 C.3     1  UNL1        0.0978
     32 C          63.5122   81.6850    9.7126 C.3     1  UNL1        0.0224
     33 C          63.3017   80.2033    9.8143 C.3     1  UNL1        0.0065
     34 C          62.7870   79.6047   11.0898 C.3     1  UNL1        0.0277
     35 C          62.4829   80.4878   12.2636 C.ar    1  UNL1       -0.0073
     36 C          61.9682   79.8892   13.5390 C.ar    1  UNL1       -0.0015
     37 C          61.6641   80.7723   14.7127 C.ar    1  UNL1        0.0203
     38 C          61.8746   82.2540   14.6110 C.ar    1  UNL1        0.0985
     39 N          62.3892   82.8526   13.3355 N.ar    1  UNL1       -0.2471
     40 C          62.6934   81.9695   12.1618 C.ar    1  UNL1        0.0695
@<TRIPOS>BOND
     1    29    30    1
     2    30    28    1
     3     1    28    1
     4     1     2    1
     5     2     3    1
     6     3     4   ar
     7     4     5   ar
     8     5     6   ar
     9     6     7   ar
    10     7     8   ar
    11     8    12    1
    12    12    13    1
    13    13    14    1
    14    14    15    1
    15    15    18    1
    16    18    19   ar
    17    19    20   ar
    18    20    21   ar
    19    21    22   ar
    20    22    24    1
    21    24    25    1
    22    24    26    1
    23    24    27    1
    24    22    23   ar
    25    15    16    1
    26    16    17    1
    27     4     9    1
    28     9    10    1
    29    31    30    1
    30    31    32    1
    31    32    33    1
    32    33    34    1
    33    34    35    1
    34    35    36   ar
    35    36    37   ar
    36    37    38   ar
    37    38    39   ar
    38    39    40   ar
    39    10     1    1
    40    40    31    1
    41     8     3   ar
    42    17    12    1
    43    40    35   ar
    44    23    18   ar
    45    10    11    1
@<TRIPOS>MOLECULE
*****
 40 45 0 0 0
SMALL
GASTEIGER

@<TRIPOS>ATOM
      1 C          62.8789   90.6079   10.5161 C.3     1  UNL1        0.0749
      2 C          63.2825   89.6407   11.5893 C.3     1  UNL1        0.0444
      3 C          64.1098   90.1099   12.7491 C.ar    1  UNL1       -0.0101
      4 C          64.5335   91.5462   12.8358 C.ar    1  UNL1       -0.0091
      5 C          65.3609   92.0153   13.9958 C.ar    1  UNL1       -0.0032
      6 C          65.7645   91.0482   15.0689 C.ar    1  UNL1        0.0010
      7 C          65.3408   89.6119   14.9822 C.ar    1  UNL1        0.0142
      8 C          64.5134   89.1428   13.8224 C.ar    1  UNL1        0.0437
      9 C          64.1299   92.5133   11.7627 C.3     1  UNL1        0.0954
     10 N          63.3026   92.0441   10.6028 N.3     1  UNL1       -0.2934
     11 H          63.8388   92.2444    9.7585 H       1  UNL1        0.1236
     12 N          64.0897   87.7065   13.7357 N.pl3   1  UNL1       -0.3043
     13 C          64.5536   86.7239   14.7698 C.3     1  UNL1        0.1122
     14 C          64.1299   85.2876   14.6831 C.3     1  UNL1        0.1122
     15 N          63.2422   84.8339   13.5623 N.pl3   1  UNL1       -0.3041
     16 C          62.7783   85.8164   12.5282 C.3     1  UNL1        0.1122
     17 C          63.2021   87.2527   12.6149 C.3     1  UNL1        0.1122
     18 C          62.8185   83.3976   13.4756 C.ar    1  UNL1        0.0479
     19 C          62.1491   82.7411   14.6465 C.ar    1  UNL1        0.0145
     20 C          61.7254   81.3048   14.5598 C.ar    1  UNL1        0.0012
     21 C          61.9710   80.5250   13.3022 C.ar    1  UNL1        0.0039
     22 C          62.6403   81.1815   12.1313 C.ar    1  UNL1        0.0726
     23 C          63.0641   82.6178   12.2180 C.ar    1  UNL1        0.0184
     24 C          62.8859   80.4017   10.8736 C.3     1  UNL1        0.4186
     25 F          63.1316   79.6220    9.6160 F       1  UNL1       -0.1659
     26 F          63.1745   81.6773   10.1391 F       1  UNL1       -0.1659
     27 F          62.5974   79.1261   11.6081 F       1  UNL1       -0.1659
     28 C          62.0515   90.1387    9.3561 C.3     1  UNL1        0.0886
     29 C          59.8404   89.9638   10.7092 C.3     1  UNL1        0.0899
     30 N          60.7252   89.4812    9.5982 N.3     1  UNL1       -0.2667
     31 C          60.2837   88.3410    8.7293 C.3     1  UNL1        0.0978
     32 C          58.9349   88.3760    8.0741 C.3     1  UNL1        0.0224
     33 C          58.4933   87.2358    7.2052 C.3     1  UNL1        0.0065
     34 C          59.4006   86.0606    6.9915 C.3     1  UNL1        0.0277
     35 C          60.7495   86.0255    7.6467 C.ar    1  UNL1       -0.0073
     36 C          61.6568   84.8503    7.4331 C.ar    1  UNL1       -0.0015
     37 C          63.0056   84.8153    8.0883 C.ar    1  UNL1        0.0203
     38 C          63.4472   85.9555    8.9572 C.ar    1  UNL1        0.0985
     39 N          62.5399   87.1307    9.1709 N.ar    1  UNL1       -0.2471
     40 C          61.1911   87.1657    8.5156 C.ar    1  UNL1        0.0695
@<TRIPOS>BOND
     1    29    30    1
     2    30    28    1
     3     1    28    1
     4     1     2    1
     5     2     3    1
     6     3     4   ar
     7     4     5   ar
     8     5     6   ar
     9     6     7   ar
    10     7     8   ar
    11     8    12    1
    12    12    13    1
    13    13    14    1
    14    14    15    1
    15    15    18    1
    16    18    19   ar
    17    19    20   ar
    18    20    21   ar
    19    21    22   ar
    20    22    24    1
    21    24    25    1
    22    24    26    1
    23    24    27    1
    24    22    23   ar
    25    15    16    1
    26    16    17    1
    27     4     9    1
    28     9    10    1
    29    31    30    1
    30    31    32    1
    31    32    33    1
    32    33    34    1
    33    34    35    1
    34    35    36   ar
    35    36    37   ar
    36    37    38   ar
    37    38    39   ar
    38    39    40   ar
    39    10     1    1
    40    40    31    1
    41     8     3   ar
    42    17    12    1
    43    40    35   ar
    44    23    18   ar
    45    10    11    1
