@<TRIPOS>MOLECULE
*****
 31 35 0 0 0
SMALL
GASTEIGER

@<TRIPOS>ATOM
      1 N          67.3519   94.3363   14.2512 N.pl3   1  UNL1       -0.3419
      2 C          66.3790   93.3734   13.6377 C.ar    1  UNL1        0.1372
      3 N          65.8824   93.5973   12.2401 N.ar    1  UNL1       -0.2286
      4 C          64.9095   92.6344   11.6266 C.ar    1  UNL1        0.1046
      5 C          64.4332   91.4477   12.4107 C.ar    1  UNL1        0.0679
      6 C          64.9297   91.2239   13.8083 C.ar    1  UNL1        0.0657
      7 C          65.9026   92.1867   14.4218 C.ar    1  UNL1        0.1021
      8 CL         66.3992   91.9629   15.8195 Cl      1  UNL1       -0.0780
      9 H          67.6645   95.1151   13.7366 H       1  UNL1        0.1437
     10 H          67.6778   94.1894   15.1685 H       1  UNL1        0.1437
     11 N          64.4534   90.0371   14.5925 N.pl3   1  UNL1       -0.3066
     12 C          64.8601   88.6535   14.1802 C.3     1  UNL1        0.0913
     13 C          64.3838   87.4668   14.9644 C.3     1  UNL1        0.0301
     14 C          63.5007   87.6639   16.1608 C.3     1  UNL1        0.0737
     15 C          62.6183   87.7047   17.3731 C.3     1  UNL1        0.0300
     16 C          62.3953   86.2940   17.8319 C.3     1  UNL1        0.0899
     17 N          63.1400   85.3814   16.9031 N.am    1  UNL1       -0.3043
     18 C          63.8231   86.2279   15.8703 C.2     1  UNL1        0.2217
     19 O          64.6785   85.7267   14.7447 O.2     1  UNL1       -0.2751
     20 C          63.0940   89.0475   16.5730 C.3     1  UNL1        0.0301
     21 C          63.5703   90.2342   15.7889 C.3     1  UNL1        0.0913
     22 H          63.1743   84.3992   16.9612 H       1  UNL1        0.1494
     23 C          63.4603   90.4848   11.7972 C.ar    1  UNL1        0.1480
     24 C          62.3402   90.8376   10.8640 C.ar    1  UNL1        0.0406
     25 C          61.6243   89.5710   10.4992 C.ar    1  UNL1        0.0376
     26 C          60.4429   89.3050    9.6141 C.ar    1  UNL1        0.0031
     27 C          59.9393   87.9033    9.4367 C.ar    1  UNL1        0.0002
     28 C          60.6170   86.7676   10.1444 C.ar    1  UNL1        0.0031
     29 C          61.7983   87.0336   11.0296 C.ar    1  UNL1        0.0375
     30 C          62.3020   88.4353   11.2070 C.ar    1  UNL1        0.1453
     31 O          63.4367   89.0001   12.0092 O.2     1  UNL1       -0.4534
@<TRIPOS>BOND
     1     1     2    1
     2     2     3   ar
     3     3     4   ar
     4     4     5   ar
     5     5    23    1
     6    23    24   ar
     7    24    25   ar
     8    25    26   ar
     9    26    27   ar
    10    27    28   ar
    11    28    29   ar
    12    29    30   ar
    13    30    31   ar
    14     5     6   ar
    15     6    11    1
    16    11    12    1
    17    12    13    1
    18    13    14    1
    19    14    15    1
    20    15    16    1
    21    16    17    1
    22    17    18   am
    23    18    19    2
    24    14    20    1
    25    20    21    1
    26     6     7   ar
    27     7     8    1
    28     7     2   ar
    29    31    23   ar
    30    21    11    1
    31    30    25   ar
    32    18    14    1
    33     1     9    1
    34     1    10    1
    35    17    22    1
@<TRIPOS>MOLECULE
*****
 31 35 0 0 0
SMALL
GASTEIGER

@<TRIPOS>ATOM
      1 N          63.5087   80.7041   14.3176 N.pl3   1  UNL1       -0.3419
      2 C          63.6015   82.1947   14.1777 C.ar    1  UNL1        0.1372
      3 N          64.3569   82.9979   15.1948 N.ar    1  UNL1       -0.2286
      4 C          64.4496   84.4884   15.0549 C.ar    1  UNL1        0.1046
      5 C          63.7870   85.1758   13.8980 C.ar    1  UNL1        0.0679
      6 C          63.0317   84.3727   12.8810 C.ar    1  UNL1        0.0657
      7 C          62.9389   82.8821   13.0208 C.ar    1  UNL1        0.1021
      8 CL         62.1836   82.0789   12.0037 Cl      1  UNL1       -0.0780
      9 H          63.9436   80.2529   15.0769 H       1  UNL1        0.1437
     10 H          63.0130   80.1770   13.6500 H       1  UNL1        0.1437
     11 N          62.3691   85.0601   11.7240 N.pl3   1  UNL1       -0.3066
     12 C          62.7550   84.7040   10.3190 C.3     1  UNL1        0.0913
     13 C          62.0924   85.3914    9.1621 C.3     1  UNL1        0.0301
     14 C          61.0439   86.4349    9.4103 C.3     1  UNL1        0.0737
     15 C          59.9843   87.4927    9.5025 C.3     1  UNL1        0.0300
     16 C          59.6101   87.8968    8.1072 C.3     1  UNL1        0.0899
     17 N          60.4383   87.0887    7.1526 N.am    1  UNL1       -0.3043
     18 C          61.3244   86.1852    7.9580 C.2     1  UNL1        0.2217
     19 O          62.3168   85.2042    7.4078 O.2     1  UNL1       -0.2751
     20 C          60.6579   86.7910   10.8153 C.3     1  UNL1        0.0301
     21 C          61.3205   86.1036   11.9722 C.3     1  UNL1        0.0913
     22 H          60.4060   87.1419    6.1701 H       1  UNL1        0.1494
     23 C          63.8798   86.6664   13.7581 C.ar    1  UNL1        0.1480
     24 C          64.4697   87.6113   14.7627 C.ar    1  UNL1        0.0406
     25 C          64.3534   89.0027   14.2146 C.ar    1  UNL1        0.0376
     26 C          64.7647   90.3360   14.7652 C.ar    1  UNL1        0.0031
     27 C          64.5141   91.5844   13.9724 C.ar    1  UNL1        0.0002
     28 C          63.8522   91.4995   12.6289 C.ar    1  UNL1        0.0031
     29 C          63.4410   90.1662   12.0784 C.ar    1  UNL1        0.0375
     30 C          63.6916   88.9178   12.8712 C.ar    1  UNL1        0.1453
     31 O          63.3988   87.4739   12.5891 O.2     1  UNL1       -0.4534
@<TRIPOS>BOND
     1     1     2    1
     2     2     3   ar
     3     3     4   ar
     4     4     5   ar
     5     5    23    1
     6    23    24   ar
     7    24    25   ar
     8    25    26   ar
     9    26    27   ar
    10    27    28   ar
    11    28    29   ar
    12    29    30   ar
    13    30    31   ar
    14     5     6   ar
    15     6    11    1
    16    11    12    1
    17    12    13    1
    18    13    14    1
    19    14    15    1
    20    15    16    1
    21    16    17    1
    22    17    18   am
    23    18    19    2
    24    14    20    1
    25    20    21    1
    26     6     7   ar
    27     7     8    1
    28     7     2   ar
    29    31    23   ar
    30    21    11    1
    31    30    25   ar
    32    18    14    1
    33     1     9    1
    34     1    10    1
    35    17    22    1
@<TRIPOS>MOLECULE
*****
 31 35 0 0 0
SMALL
GASTEIGER

@<TRIPOS>ATOM
      1 N          58.5013   89.2948    6.5291 N.pl3   1  UNL1       -0.3419
      2 C          59.3166   88.3787    7.3928 C.ar    1  UNL1        0.1372
      3 N          59.2598   86.8955    7.1758 N.ar    1  UNL1       -0.2286
      4 C          60.0750   85.9794    8.0396 C.ar    1  UNL1        0.1046
      5 C          60.9471   86.5465    9.1203 C.ar    1  UNL1        0.0679
      6 C          61.0039   88.0296    9.3373 C.ar    1  UNL1        0.0657
      7 C          60.1886   88.9457    8.4735 C.ar    1  UNL1        0.1021
      8 CL         60.2454   90.4289    8.6905 Cl      1  UNL1       -0.0780
      9 H          57.9289   88.9226    5.8197 H       1  UNL1        0.1437
     10 H          58.5385   90.2682    6.6715 H       1  UNL1        0.1437
     11 N          61.8760   88.5967   10.4180 N.pl3   1  UNL1       -0.3066
     12 C          62.3120   87.7300   11.5619 C.3     1  UNL1        0.0913
     13 C          63.1841   88.2971   12.6426 C.3     1  UNL1        0.0301
     14 C          63.6201   89.7309   12.5794 C.3     1  UNL1        0.0737
     15 C          64.1327   91.1389   12.6507 C.3     1  UNL1        0.0300
     16 C          64.9621   91.2678   13.8940 C.3     1  UNL1        0.0899
     17 N          64.9621   89.9395   14.5909 N.am    1  UNL1       -0.3043
     18 C          64.1327   88.9897   13.7785 C.2     1  UNL1        0.2217
     19 O          63.8632   87.5513   14.1074 O.2     1  UNL1       -0.2751
     20 C          63.1841   90.5977   11.4354 C.3     1  UNL1        0.0301
     21 C          62.3120   90.0306   10.3548 C.3     1  UNL1        0.0913
     22 H          65.4251   89.7282   15.4337 H       1  UNL1        0.1494
     23 C          61.7624   85.6304    9.9841 C.ar    1  UNL1        0.1480
     24 C          62.9404   84.8154    9.5390 C.ar    1  UNL1        0.0406
     25 C          63.4489   84.0497   10.7244 C.ar    1  UNL1        0.0376
     26 C          64.5867   83.0855   10.8835 C.ar    1  UNL1        0.0031
     27 C          64.8610   82.4631   12.2204 C.ar    1  UNL1        0.0002
     28 C          63.9973   82.8050   13.3982 C.ar    1  UNL1        0.0031
     29 C          62.8594   83.7692   13.2391 C.ar    1  UNL1        0.0375
     30 C          62.5852   84.3916   11.9022 C.ar    1  UNL1        0.1453
     31 O          61.5430   85.3685   11.4446 O.2     1  UNL1       -0.4534
@<TRIPOS>BOND
     1     1     2    1
     2     2     3   ar
     3     3     4   ar
     4     4     5   ar
     5     5    23    1
     6    23    24   ar
     7    24    25   ar
     8    25    26   ar
     9    26    27   ar
    10    27    28   ar
    11    28    29   ar
    12    29    30   ar
    13    30    31   ar
    14     5     6   ar
    15     6    11    1
    16    11    12    1
    17    12    13    1
    18    13    14    1
    19    14    15    1
    20    15    16    1
    21    16    17    1
    22    17    18   am
    23    18    19    2
    24    14    20    1
    25    20    21    1
    26     6     7   ar
    27     7     8    1
    28     7     2   ar
    29    31    23   ar
    30    21    11    1
    31    30    25   ar
    32    18    14    1
    33     1     9    1
    34     1    10    1
    35    17    22    1
@<TRIPOS>MOLECULE
*****
 31 35 0 0 0
SMALL
GASTEIGER

@<TRIPOS>ATOM
      1 N          58.5200   88.0590    6.4355 N.pl3   1  UNL1       -0.3419
      2 C          59.4517   88.3628    7.5712 C.ar    1  UNL1        0.1372
      3 N          59.6705   89.7828    8.0024 N.ar    1  UNL1       -0.2286
      4 C          60.6021   90.0867    9.1380 C.ar    1  UNL1        0.1046
      5 C          61.3150   88.9706    9.8424 C.ar    1  UNL1        0.0679
      6 C          61.0962   87.5507    9.4112 C.ar    1  UNL1        0.0657
      7 C          60.1646   87.2468    8.2756 C.ar    1  UNL1        0.1021
      8 CL         59.9458   85.8268    7.8444 Cl      1  UNL1       -0.0780
      9 H          58.0522   88.7915    5.9732 H       1  UNL1        0.1437
     10 H          58.3765   87.1270    6.1525 H       1  UNL1        0.1437
     11 N          61.8091   86.4346   10.1157 N.pl3   1  UNL1       -0.3066
     12 C          61.5661   86.1930   11.5760 C.3     1  UNL1        0.0913
     13 C          62.2790   85.0770   12.2803 C.3     1  UNL1        0.0301
     14 C          63.2349   84.2025   11.5244 C.3     1  UNL1        0.0737
     15 C          64.2139   83.2508   10.9032 C.3     1  UNL1        0.0300
     16 C          64.6781   82.3022   11.9686 C.3     1  UNL1        0.0899
     17 N          63.9858   82.6677   13.2482 N.am    1  UNL1       -0.3043
     18 C          63.0939   83.8420   12.9737 C.2     1  UNL1        0.2217
     19 O          62.2153   84.5345   13.9729 O.2     1  UNL1       -0.2751
     20 C          63.4779   84.4440   10.0641 C.3     1  UNL1        0.0301
     21 C          62.7651   85.5601    9.3597 C.3     1  UNL1        0.0913
     22 H          64.0973   82.2160   14.1158 H       1  UNL1        0.1494
     23 C          62.2467   89.2745   10.9781 C.ar    1  UNL1        0.1480
     24 C          63.0211   90.5451   11.1673 C.ar    1  UNL1        0.0406
     25 C          63.8205   90.4170   12.4301 C.ar    1  UNL1        0.0376
     26 C          64.7675   91.3550   13.1180 C.ar    1  UNL1        0.0031
     27 C          65.4342   90.9433   14.3970 C.ar    1  UNL1        0.0002
     28 C          65.1538   89.5935   14.9882 C.ar    1  UNL1        0.0031
     29 C          64.2068   88.6555   14.3004 C.ar    1  UNL1        0.0375
     30 C          63.5401   89.0672   13.0213 C.ar    1  UNL1        0.1453
     31 O          62.5674   88.3611   12.1239 O.2     1  UNL1       -0.4534
@<TRIPOS>BOND
     1     1     2    1
     2     2     3   ar
     3     3     4   ar
     4     4     5   ar
     5     5    23    1
     6    23    24   ar
     7    24    25   ar
     8    25    26   ar
     9    26    27   ar
    10    27    28   ar
    11    28    29   ar
    12    29    30   ar
    13    30    31   ar
    14     5     6   ar
    15     6    11    1
    16    11    12    1
    17    12    13    1
    18    13    14    1
    19    14    15    1
    20    15    16    1
    21    16    17    1
    22    17    18   am
    23    18    19    2
    24    14    20    1
    25    20    21    1
    26     6     7   ar
    27     7     8    1
    28     7     2   ar
    29    31    23   ar
    30    21    11    1
    31    30    25   ar
    32    18    14    1
    33     1     9    1
    34     1    10    1
    35    17    22    1
@<TRIPOS>MOLECULE
*****
 31 35 0 0 0
SMALL
GASTEIGER

@<TRIPOS>ATOM
      1 N          58.4158   89.2949    6.5028 N.pl3   1  UNL1       -0.3419
      2 C          59.2442   88.3913    7.3672 C.ar    1  UNL1        0.1372
      3 N          59.1804   86.9048    7.1761 N.ar    1  UNL1       -0.2286
      4 C          60.0089   86.0013    8.0405 C.ar    1  UNL1        0.1046
      5 C          60.9011   86.5842    9.0961 C.ar    1  UNL1        0.0679
      6 C          60.9649   88.0705    9.2872 C.ar    1  UNL1        0.0657
      7 C          60.1364   88.9741    8.4228 C.ar    1  UNL1        0.1021
      8 CL         60.2002   90.4606    8.6140 Cl      1  UNL1       -0.0780
      9 H          57.8302   88.9123    5.8100 H       1  UNL1        0.1437
     10 H          58.4577   90.2704    6.6282 H       1  UNL1        0.1437
     11 N          61.8571   88.6534   10.3428 N.pl3   1  UNL1       -0.3066
     12 C          62.5156   89.9823   10.1183 C.3     1  UNL1        0.0913
     13 C          63.4078   90.5651   11.1738 C.3     1  UNL1        0.0301
     14 C          63.6415   89.8190   12.4540 C.3     1  UNL1        0.0737
     15 C          63.9675   89.1924   13.7773 C.3     1  UNL1        0.0300
     16 C          64.8918   90.1170   14.5129 C.3     1  UNL1        0.0899
     17 N          65.1371   91.3150   13.6440 N.am    1  UNL1       -0.3043
     18 C          64.3644   91.1308   12.3717 C.2     1  UNL1        0.2217
     19 O          64.3220   92.0900   11.2192 O.2     1  UNL1       -0.2751
     20 C          62.9830   88.4902   12.6786 C.3     1  UNL1        0.0301
     21 C          62.0908   87.9074   11.6230 C.3     1  UNL1        0.0913
     22 H          65.7055   92.0866   13.8694 H       1  UNL1        0.1494
     23 C          61.7296   85.6806    9.9605 C.ar    1  UNL1        0.1480
     24 C          62.8990   84.8569    9.5088 C.ar    1  UNL1        0.0406
     25 C          63.4262   84.1093   10.6976 C.ar    1  UNL1        0.0376
     26 C          64.5654   83.1460   10.8530 C.ar    1  UNL1        0.0031
     27 C          64.8611   82.5443   12.1948 C.ar    1  UNL1        0.0002
     28 C          64.0175   82.9059   13.3812 C.ar    1  UNL1        0.0031
     29 C          62.8782   83.8692   13.2258 C.ar    1  UNL1        0.0375
     30 C          62.5826   84.4709   11.8840 C.ar    1  UNL1        0.1453
     31 O          61.5340   85.4420   11.4285 O.2     1  UNL1       -0.4534
@<TRIPOS>BOND
     1     1     2    1
     2     2     3   ar
     3     3     4   ar
     4     4     5   ar
     5     5    23    1
     6    23    24   ar
     7    24    25   ar
     8    25    26   ar
     9    26    27   ar
    10    27    28   ar
    11    28    29   ar
    12    29    30   ar
    13    30    31   ar
    14     5     6   ar
    15     6    11    1
    16    11    12    1
    17    12    13    1
    18    13    14    1
    19    14    15    1
    20    15    16    1
    21    16    17    1
    22    17    18   am
    23    18    19    2
    24    14    20    1
    25    20    21    1
    26     6     7   ar
    27     7     8    1
    28     7     2   ar
    29    31    23   ar
    30    21    11    1
    31    30    25   ar
    32    18    14    1
    33     1     9    1
    34     1    10    1
    35    17    22    1
@<TRIPOS>MOLECULE
*****
 31 35 0 0 0
SMALL
GASTEIGER

@<TRIPOS>ATOM
      1 N          59.1268   87.8579    7.3390 N.pl3   1  UNL1       -0.3419
      2 C          59.9622   88.3770    8.4716 C.ar    1  UNL1        0.1372
      3 N          60.1197   89.8553    8.6712 N.ar    1  UNL1       -0.2286
      4 C          60.9551   90.3744    9.8037 C.ar    1  UNL1        0.1046
      5 C          61.6330   89.4151   10.7367 C.ar    1  UNL1        0.0679
      6 C          61.4754   87.9368   10.5371 C.ar    1  UNL1        0.0657
      7 C          60.6400   87.4178    9.4045 C.ar    1  UNL1        0.1021
      8 CL         60.4825   85.9394    9.2049 Cl      1  UNL1       -0.0780
      9 H          58.6819   88.4875    6.7267 H       1  UNL1        0.1437
     10 H          59.0234   86.8877    7.2080 H       1  UNL1        0.1437
     11 N          62.1532   86.9775   11.4701 N.pl3   1  UNL1       -0.3066
     12 C          63.1021   87.4894   12.5129 C.3     1  UNL1        0.0913
     13 C          63.7799   86.5302   13.4458 C.3     1  UNL1        0.0301
     14 C          63.5088   85.0590   13.3359 C.3     1  UNL1        0.0737
     15 C          63.3373   83.5688   13.3458 C.3     1  UNL1        0.0300
     16 C          64.1997   83.0102   14.4388 C.3     1  UNL1        0.0899
     17 N          64.9041   84.1553   15.1043 N.am    1  UNL1       -0.3043
     18 C          64.4771   85.4214   14.4227 C.2     1  UNL1        0.2217
     19 O          64.9375   86.8067   14.7673 O.2     1  UNL1       -0.2751
     20 C          62.5599   84.5470   12.2931 C.3     1  UNL1        0.0301
     21 C          61.8821   85.5063   11.3602 C.3     1  UNL1        0.0913
     22 H          65.5357   84.0876   15.8565 H       1  UNL1        0.1494
     23 C          62.4684   89.9341   11.8693 C.ar    1  UNL1        0.1480
     24 C          63.7572   90.6905   11.7397 C.ar    1  UNL1        0.0406
     25 C          64.2470   91.0118   13.1206 C.ar    1  UNL1        0.0376
     26 C          65.4635   91.7401   13.6099 C.ar    1  UNL1        0.0031
     27 C          65.6939   91.9108   15.0822 C.ar    1  UNL1        0.0002
     28 C          64.7077   91.3530   16.0653 C.ar    1  UNL1        0.0031
     29 C          63.4912   90.6246   15.5760 C.ar    1  UNL1        0.0375
     30 C          63.2608   90.4540   14.1037 C.ar    1  UNL1        0.1453
     31 O          62.1616   89.7880   13.3303 O.2     1  UNL1       -0.4534
@<TRIPOS>BOND
     1     1     2    1
     2     2     3   ar
     3     3     4   ar
     4     4     5   ar
     5     5    23    1
     6    23    24   ar
     7    24    25   ar
     8    25    26   ar
     9    26    27   ar
    10    27    28   ar
    11    28    29   ar
    12    29    30   ar
    13    30    31   ar
    14     5     6   ar
    15     6    11    1
    16    11    12    1
    17    12    13    1
    18    13    14    1
    19    14    15    1
    20    15    16    1
    21    16    17    1
    22    17    18   am
    23    18    19    2
    24    14    20    1
    25    20    21    1
    26     6     7   ar
    27     7     8    1
    28     7     2   ar
    29    31    23   ar
    30    21    11    1
    31    30    25   ar
    32    18    14    1
    33     1     9    1
    34     1    10    1
    35    17    22    1
@<TRIPOS>MOLECULE
*****
 31 35 0 0 0
SMALL
GASTEIGER

@<TRIPOS>ATOM
      1 N          63.5210   80.8351   13.3152 N.pl3   1  UNL1       -0.3419
      2 C          63.6154   82.2856   13.6854 C.ar    1  UNL1        0.1372
      3 N          64.2586   82.6891   14.9791 N.ar    1  UNL1       -0.2286
      4 C          64.3530   84.1396   15.3493 C.ar    1  UNL1        0.1046
      5 C          63.8043   85.1866   14.4258 C.ar    1  UNL1        0.0679
      6 C          63.1611   84.7831   13.1322 C.ar    1  UNL1        0.0657
      7 C          63.0667   83.3326   12.7620 C.ar    1  UNL1        0.1021
      8 CL         62.4235   82.9290   11.4683 Cl      1  UNL1       -0.0780
      9 H          63.8811   80.1479   13.9213 H       1  UNL1        0.1437
     10 H          63.0988   80.5702   12.4662 H       1  UNL1        0.1437
     11 N          62.6124   85.8301   12.2087 N.pl3   1  UNL1       -0.3066
     12 C          63.0904   87.2479   12.3139 C.3     1  UNL1        0.0913
     13 C          62.5416   88.2948   11.3905 C.3     1  UNL1        0.0301
     14 C          61.5148   87.9239   10.3618 C.3     1  UNL1        0.0737
     15 C          60.4894   87.7037    9.2894 C.3     1  UNL1        0.0300
     16 C          60.2360   89.0186    8.6134 C.3     1  UNL1        0.0899
     17 N          61.1048   90.0514    9.2680 N.am    1  UNL1       -0.3043
     18 C          61.8952   89.3749   10.3486 C.2     1  UNL1        0.2217
     19 O          62.8910   90.0335   11.2565 O.2     1  UNL1       -0.2751
     20 C          61.0368   86.5060   10.2566 C.3     1  UNL1        0.0301
     21 C          61.5856   85.4591   11.1801 C.3     1  UNL1        0.0913
     22 H          61.1486   91.0058    9.0303 H       1  UNL1        0.1494
     23 C          63.8987   86.6372   14.7960 C.ar    1  UNL1        0.1480
     24 C          64.7394   87.6703   14.1061 C.ar    1  UNL1        0.0406
     25 C          64.5293   88.9809   14.8048 C.ar    1  UNL1        0.0376
     26 C          65.0964   90.3486   14.5645 C.ar    1  UNL1        0.0031
     27 C          64.6929   91.4932   15.4460 C.ar    1  UNL1        0.0002
     28 C          63.7224   91.2701   16.5677 C.ar    1  UNL1        0.0031
     29 C          63.1553   89.9024   16.8080 C.ar    1  UNL1        0.0375
     30 C          63.5588   88.7578   15.9266 C.ar    1  UNL1        0.1453
     31 O          63.1691   87.3093   15.9211 O.2     1  UNL1       -0.4534
@<TRIPOS>BOND
     1     1     2    1
     2     2     3   ar
     3     3     4   ar
     4     4     5   ar
     5     5    23    1
     6    23    24   ar
     7    24    25   ar
     8    25    26   ar
     9    26    27   ar
    10    27    28   ar
    11    28    29   ar
    12    29    30   ar
    13    30    31   ar
    14     5     6   ar
    15     6    11    1
    16    11    12    1
    17    12    13    1
    18    13    14    1
    19    14    15    1
    20    15    16    1
    21    16    17    1
    22    17    18   am
    23    18    19    2
    24    14    20    1
    25    20    21    1
    26     6     7   ar
    27     7     8    1
    28     7     2   ar
    29    31    23   ar
    30    21    11    1
    31    30    25   ar
    32    18    14    1
    33     1     9    1
    34     1    10    1
    35    17    22    1
@<TRIPOS>MOLECULE
*****
 31 35 0 0 0
SMALL
GASTEIGER

@<TRIPOS>ATOM
      1 N          64.4715   80.6285   14.1937 N.pl3   1  UNL1       -0.3419
      2 C          63.8572   81.8069   13.4979 C.ar    1  UNL1        0.1372
      3 N          63.1408   81.6180   12.1936 N.ar    1  UNL1       -0.2286
      4 C          62.5265   82.7964   11.4978 C.ar    1  UNL1        0.1046
      5 C          62.6286   84.1636   12.1064 C.ar    1  UNL1        0.0679
      6 C          63.3450   84.3524   13.4106 C.ar    1  UNL1        0.0657
      7 C          63.9593   83.1741   14.1064 C.ar    1  UNL1        0.1021
      8 CL         64.6756   83.3629   15.4107 Cl      1  UNL1       -0.0780
      9 H          64.4045   79.7311   13.7943 H       1  UNL1        0.1437
     10 H          64.9416   80.7524   15.0497 H       1  UNL1        0.1437
     11 N          63.4471   85.7197   14.0192 N.pl3   1  UNL1       -0.3066
     12 C          63.0892   85.9275   15.4610 C.3     1  UNL1        0.0913
     13 C          63.1913   87.2947   16.0695 C.3     1  UNL1        0.0301
     14 C          63.6513   88.4541   15.2362 C.3     1  UNL1        0.0737
     15 C          64.0933   89.7022   14.5312 C.3     1  UNL1        0.0300
     16 C          64.0445   90.8328   15.5159 C.3     1  UNL1        0.0899
     17 N          63.5723   90.2834   16.8294 N.am    1  UNL1       -0.3043
     18 C          63.3293   88.8133   16.6566 C.2     1  UNL1        0.2217
     19 O          62.8487   87.8683   17.7177 O.2     1  UNL1       -0.2751
     20 C          64.0091   88.2462   13.7944 C.3     1  UNL1        0.0301
     21 C          63.9070   86.8791   13.1860 C.3     1  UNL1        0.0913
     22 H          63.4444   90.7974   17.6593 H       1  UNL1        0.1494
     23 C          62.0143   85.3420   11.4106 C.ar    1  UNL1        0.1480
     24 C          61.9598   85.5603    9.9276 C.ar    1  UNL1        0.0406
     25 C          61.2585   86.8622    9.6761 C.ar    1  UNL1        0.0376
     26 C          60.9160   87.5895    8.4098 C.ar    1  UNL1        0.0031
     27 C          60.1946   88.9031    8.4711 C.ar    1  UNL1        0.0002
     28 C          59.8156   89.4895    9.7987 C.ar    1  UNL1        0.0031
     29 C          60.1581   88.7622   11.0650 C.ar    1  UNL1        0.0375
     30 C          60.8796   87.4485   11.0037 C.ar    1  UNL1        0.1453
     31 O          61.3467   86.5090   12.0757 O.2     1  UNL1       -0.4534
@<TRIPOS>BOND
     1     1     2    1
     2     2     3   ar
     3     3     4   ar
     4     4     5   ar
     5     5    23    1
     6    23    24   ar
     7    24    25   ar
     8    25    26   ar
     9    26    27   ar
    10    27    28   ar
    11    28    29   ar
    12    29    30   ar
    13    30    31   ar
    14     5     6   ar
    15     6    11    1
    16    11    12    1
    17    12    13    1
    18    13    14    1
    19    14    15    1
    20    15    16    1
    21    16    17    1
    22    17    18   am
    23    18    19    2
    24    14    20    1
    25    20    21    1
    26     6     7   ar
    27     7     8    1
    28     7     2   ar
    29    31    23   ar
    30    21    11    1
    31    30    25   ar
    32    18    14    1
    33     1     9    1
    34     1    10    1
    35    17    22    1
@<TRIPOS>MOLECULE
*****
 31 35 0 0 0
SMALL
GASTEIGER

@<TRIPOS>ATOM
      1 N          59.0056   87.8396    7.0537 N.pl3   1  UNL1       -0.3419
      2 C          59.8250   88.3290    8.2109 C.ar    1  UNL1        0.1372
      3 N          59.9495   89.8009    8.4723 N.ar    1  UNL1       -0.2286
      4 C          60.7689   90.2903    9.6295 C.ar    1  UNL1        0.1046
      5 C          61.4639   89.3080   10.5251 C.ar    1  UNL1        0.0679
      6 C          61.3393   87.8362   10.2636 C.ar    1  UNL1        0.0657
      7 C          60.5199   87.3468    9.1065 C.ar    1  UNL1        0.1021
      8 CL         60.3954   85.8749    8.8450 Cl      1  UNL1       -0.0780
      9 H          58.5495   88.4843    6.4659 H       1  UNL1        0.1437
     10 H          58.9238   86.8736    6.8821 H       1  UNL1        0.1437
     11 N          62.0342   86.8539   11.1593 N.pl3   1  UNL1       -0.3066
     12 C          61.8300   85.3814   10.9589 C.3     1  UNL1        0.0913
     13 C          62.5249   84.3992   11.8545 C.3     1  UNL1        0.0301
     14 C          63.4240   84.8893   12.9506 C.3     1  UNL1        0.0737
     15 C          64.3479   85.2286   14.0826 C.3     1  UNL1        0.0300
     16 C          64.8119   83.9442   14.7031 C.3     1  UNL1        0.0899
     17 N          64.1749   82.8111   13.9546 N.am    1  UNL1       -0.3043
     18 C          63.3171   83.3952   12.8715 C.2     1  UNL1        0.2217
     19 O          62.4966   82.6211   11.8829 O.2     1  UNL1       -0.2751
     20 C          63.6283   86.3617   13.1510 C.3     1  UNL1        0.0301
     21 C          62.9334   87.3440   12.2553 C.3     1  UNL1        0.0913
     22 H          64.2981   81.8523   14.1414 H       1  UNL1        0.1494
     23 C          62.2833   89.7974   11.6823 C.ar    1  UNL1        0.1480
     24 C          63.5730   90.5579   11.5903 C.ar    1  UNL1        0.0406
     25 C          64.0437   90.8428   12.9857 C.ar    1  UNL1        0.0376
     26 C          65.2527   91.5589   13.5105 C.ar    1  UNL1        0.0031
     27 C          65.4630   91.6906   14.9898 C.ar    1  UNL1        0.0002
     28 C          64.4642   91.1063   15.9443 C.ar    1  UNL1        0.0031
     29 C          63.2551   90.3902   15.4195 C.ar    1  UNL1        0.0375
     30 C          63.0449   90.2585   13.9402 C.ar    1  UNL1        0.1453
     31 O          61.9569   89.6124   13.1346 O.2     1  UNL1       -0.4534
@<TRIPOS>BOND
     1     1     2    1
     2     2     3   ar
     3     3     4   ar
     4     4     5   ar
     5     5    23    1
     6    23    24   ar
     7    24    25   ar
     8    25    26   ar
     9    26    27   ar
    10    27    28   ar
    11    28    29   ar
    12    29    30   ar
    13    30    31   ar
    14     5     6   ar
    15     6    11    1
    16    11    12    1
    17    12    13    1
    18    13    14    1
    19    14    15    1
    20    15    16    1
    21    16    17    1
    22    17    18   am
    23    18    19    2
    24    14    20    1
    25    20    21    1
    26     6     7   ar
    27     7     8    1
    28     7     2   ar
    29    31    23   ar
    30    21    11    1
    31    30    25   ar
    32    18    14    1
    33     1     9    1
    34     1    10    1
    35    17    22    1
