@<TRIPOS>MOLECULE
*****
 27 30 0 0 0
SMALL
GASTEIGER

@<TRIPOS>ATOM
      1 C          63.6974   89.0951   13.5312 C.2     1  UNL1       -0.0246
      2 C          63.9207   87.6261   13.7365 C.2     1  UNL1       -0.0421
      3 C          63.3074   86.8977   12.5775 C.3     1  UNL1        0.0480
      4 C          62.7051   87.9165   11.6560 C.ar    1  UNL1       -0.0184
      5 C          61.9683   87.7830   10.3563 C.ar    1  UNL1       -0.0040
      6 C          61.4725   89.0076    9.6460 C.ar    1  UNL1       -0.0003
      7 C          61.7135   90.3657   10.2355 C.ar    1  UNL1       -0.0000
      8 C          62.4503   90.4992   11.5352 C.ar    1  UNL1       -0.0006
      9 C          62.9461   89.2746   12.2454 C.ar    1  UNL1       -0.0079
     10 C          63.5677   90.2984   15.8303 C.3     1  UNL1        0.0111
     11 C          64.1465   90.1921   14.4504 C.3     1  UNL1        0.0634
     12 C          65.1744   91.1827   13.9900 C.ar    1  UNL1        0.0818
     13 C          66.5587   91.1500   14.5666 C.ar    1  UNL1        0.1139
     14 N          67.5866   92.1407   14.1060 N.ar    1  UNL1       -0.2394
     15 C          67.2301   93.1641   13.0690 C.ar    1  UNL1        0.1195
     16 C          65.8457   93.1968   12.4923 C.ar    1  UNL1        0.1191
     17 N          64.8179   92.2061   12.9528 N.ar    1  UNL1       -0.2446
     18 C          64.6324   86.9961   14.8969 C.3     1  UNL1        0.0394
     19 C          64.3089   85.5881   15.3004 C.3     1  UNL1        0.0769
     20 N          62.9984   85.2796   15.9618 N.3     1  UNL1       -0.2634
     21 C          62.5808   86.0362   17.1879 C.3     1  UNL1        0.0900
     22 C          62.1057   84.2147   15.3972 C.3     1  UNL1        0.1587
     23 C          62.6339   83.2621   14.3660 C.ar    1  UNL1        0.2223
     24 N          63.3029   81.9479   14.6402 N.ar    1  UNL1       -0.2092
     25 C          63.6684   81.3300   13.3231 C.ar    1  UNL1        0.1424
     26 C          63.2254   82.2625   12.2349 C.ar    1  UNL1        0.2018
     27 O          62.5861   83.4566   12.8794 O.2     1  UNL1       -0.4338
@<TRIPOS>BOND
     1    11    10    1
     2    11     1    1
     3     1     2    2
     4     2    18    1
     5    18    19    1
     6    19    20    1
     7    20    21    1
     8    20    22    1
     9    22    23    1
    10    23    24   ar
    11    24    25   ar
    12    25    26   ar
    13    26    27   ar
    14     2     3    1
    15     3     4    1
    16     4     5   ar
    17     5     6   ar
    18     6     7   ar
    19     7     8   ar
    20     8     9   ar
    21    11    12    1
    22    12    13   ar
    23    13    14   ar
    24    14    15   ar
    25    15    16   ar
    26    16    17   ar
    27     9     1    1
    28    17    12   ar
    29    27    23   ar
    30     9     4   ar
@<TRIPOS>MOLECULE
*****
 27 30 0 0 0
SMALL
GASTEIGER

@<TRIPOS>ATOM
      1 C          61.4125   88.1175   10.8464 C.2     1  UNL1       -0.0246
      2 C          62.1857   86.8798   11.1928 C.2     1  UNL1       -0.0421
      3 C          61.9554   85.8704   10.1074 C.3     1  UNL1        0.0480
      4 C          61.0398   86.4844    9.0901 C.ar    1  UNL1       -0.0184
      5 C          60.4684   85.9583    7.8069 C.ar    1  UNL1       -0.0040
      6 C          59.5614   86.8210    6.9805 C.ar    1  UNL1       -0.0003
      7 C          59.2259   88.2098    7.4372 C.ar    1  UNL1       -0.0000
      8 C          59.7973   88.7359    8.7204 C.ar    1  UNL1       -0.0006
      9 C          60.7043   87.8732    9.5468 C.ar    1  UNL1       -0.0079
     10 C          60.0878   89.7654   12.3564 C.3     1  UNL1        0.0111
     11 C          61.3572   89.3784   11.6571 C.3     1  UNL1        0.0634
     12 C          62.5712   90.2522   11.7687 C.ar    1  UNL1        0.0818
     13 C          63.0774   90.9902   10.5649 C.ar    1  UNL1        0.1139
     14 N          64.2914   91.8640   10.6765 N.ar    1  UNL1       -0.2394
     15 C          64.9993   92.0000   11.9919 C.ar    1  UNL1        0.1195
     16 C          64.4932   91.2621   13.1958 C.ar    1  UNL1        0.1191
     17 N          63.2791   90.3882   13.0842 N.ar    1  UNL1       -0.2446
     18 C          63.0394   86.6854   12.4108 C.3     1  UNL1        0.0394
     19 C          63.2851   85.3043   12.9419 C.3     1  UNL1        0.0769
     20 N          64.0138   85.1184   14.2397 N.3     1  UNL1       -0.2634
     21 C          64.5864   86.3061   14.9551 C.3     1  UNL1        0.0900
     22 C          64.1700   83.7450   14.8222 C.3     1  UNL1        0.1587
     23 C          63.3491   82.6074   14.2912 C.ar    1  UNL1        0.2223
     24 N          63.8174   81.5558   13.3295 N.ar    1  UNL1       -0.2092
     25 C          62.6736   80.6200   13.0726 C.ar    1  UNL1        0.1424
     26 C          61.4983   81.0933   13.8755 C.ar    1  UNL1        0.2018
     27 O          61.9158   82.3216   14.6286 O.2     1  UNL1       -0.4338
@<TRIPOS>BOND
     1    11    10    1
     2    11     1    1
     3     1     2    2
     4     2    18    1
     5    18    19    1
     6    19    20    1
     7    20    21    1
     8    20    22    1
     9    22    23    1
    10    23    24   ar
    11    24    25   ar
    12    25    26   ar
    13    26    27   ar
    14     2     3    1
    15     3     4    1
    16     4     5   ar
    17     5     6   ar
    18     6     7   ar
    19     7     8   ar
    20     8     9   ar
    21    11    12    1
    22    12    13   ar
    23    13    14   ar
    24    14    15   ar
    25    15    16   ar
    26    16    17   ar
    27     9     1    1
    28    17    12   ar
    29    27    23   ar
    30     9     4   ar
@<TRIPOS>MOLECULE
*****
 27 30 0 0 0
SMALL
GASTEIGER

@<TRIPOS>ATOM
      1 C          62.9259   85.4208   12.0293 C.2     1  UNL1       -0.0246
      2 C          63.4798   86.1483   13.2184 C.2     1  UNL1       -0.0421
      3 C          63.8402   85.1293   14.2585 C.3     1  UNL1        0.0480
      4 C          63.5090   83.7721   13.7123 C.ar    1  UNL1       -0.0184
      5 C          63.6490   82.3956   14.2914 C.ar    1  UNL1       -0.0040
      6 C          63.2240   81.1992   13.4928 C.ar    1  UNL1       -0.0003
      7 C          62.6589   81.3793   12.1151 C.ar    1  UNL1       -0.0000
      8 C          62.5189   82.7558   11.5359 C.ar    1  UNL1       -0.0006
      9 C          62.9439   83.9523   12.3345 C.ar    1  UNL1       -0.0079
     10 C          62.6725   85.3661    9.4441 C.3     1  UNL1        0.0111
     11 C          62.4393   86.0511   10.7581 C.3     1  UNL1        0.0634
     12 C          61.7195   87.3663   10.8007 C.ar    1  UNL1        0.0818
     13 C          62.2624   88.5434   10.0459 C.ar    1  UNL1        0.1139
     14 N          61.5425   89.8586   10.0885 N.ar    1  UNL1       -0.2394
     15 C          60.2797   89.9970   10.8861 C.ar    1  UNL1        0.1195
     16 C          59.7367   88.8200   11.6410 C.ar    1  UNL1        0.1191
     17 N          60.4566   87.5047   11.5983 N.ar    1  UNL1       -0.2446
     18 C          63.6443   87.6338   13.3451 C.3     1  UNL1        0.0394
     19 C          64.4064   88.2080   14.5024 C.3     1  UNL1        0.0769
     20 N          63.7308   89.1545   15.4498 N.3     1  UNL1       -0.2634
     21 C          63.0751   88.6305   16.6931 C.3     1  UNL1        0.0900
     22 C          63.7108   90.6248   15.1541 C.3     1  UNL1        0.1587
     23 C          64.8223   91.2455   14.3607 C.ar    1  UNL1        0.2223
     24 N          64.6685   92.0278   13.0902 N.ar    1  UNL1       -0.2092
     25 C          66.0339   92.4586   12.6428 C.ar    1  UNL1        0.1424
     26 C          67.0316   91.9425   13.6369 C.ar    1  UNL1        0.2018
     27 O          66.2828   91.1927   14.6986 O.2     1  UNL1       -0.4338
@<TRIPOS>BOND
     1    11    10    1
     2    11     1    1
     3     1     2    2
     4     2    18    1
     5    18    19    1
     6    19    20    1
     7    20    21    1
     8    20    22    1
     9    22    23    1
    10    23    24   ar
    11    24    25   ar
    12    25    26   ar
    13    26    27   ar
    14     2     3    1
    15     3     4    1
    16     4     5   ar
    17     5     6   ar
    18     6     7   ar
    19     7     8   ar
    20     8     9   ar
    21    11    12    1
    22    12    13   ar
    23    13    14   ar
    24    14    15   ar
    25    15    16   ar
    26    16    17   ar
    27     9     1    1
    28    17    12   ar
    29    27    23   ar
    30     9     4   ar
@<TRIPOS>MOLECULE
*****
 27 30 0 0 0
SMALL
GASTEIGER

@<TRIPOS>ATOM
      1 C          61.3200   88.0155   10.8530 C.2     1  UNL1       -0.0246
      2 C          62.0547   86.7451   11.1634 C.2     1  UNL1       -0.0421
      3 C          61.8282   85.7899   10.0293 C.3     1  UNL1        0.0480
      4 C          60.9536   86.4699    9.0180 C.ar    1  UNL1       -0.0184
      5 C          60.4027   86.0142    7.6994 C.ar    1  UNL1       -0.0040
      6 C          59.5377   86.9342    6.8899 C.ar    1  UNL1       -0.0003
      7 C          59.2236   88.3097    7.3989 C.ar    1  UNL1       -0.0000
      8 C          59.7745   88.7654    8.7176 C.ar    1  UNL1       -0.0006
      9 C          60.6395   87.8454    9.5271 C.ar    1  UNL1       -0.0079
     10 C          60.0030   89.6153   12.4204 C.3     1  UNL1        0.0111
     11 C          61.2739   89.2410   11.7169 C.3     1  UNL1        0.0634
     12 C          62.4985   90.0921   11.8773 C.ar    1  UNL1        0.0818
     13 C          63.0241   90.8772   10.7122 C.ar    1  UNL1        0.1139
     14 N          64.2488   91.7284   10.8727 N.ar    1  UNL1       -0.2394
     15 C          64.9479   91.7944   12.1981 C.ar    1  UNL1        0.1195
     16 C          64.4223   91.0093   13.3632 C.ar    1  UNL1        0.1191
     17 N          63.1977   90.1582   13.2028 N.ar    1  UNL1       -0.2446
     18 C          62.8722   86.4771   12.3921 C.3     1  UNL1        0.0394
     19 C          63.3891   85.0951   12.6623 C.3     1  UNL1        0.0769
     20 N          63.3668   84.5455   14.0578 N.3     1  UNL1       -0.2634
     21 C          62.4652   83.3956   14.3967 C.3     1  UNL1        0.0900
     22 C          64.2460   85.1459   15.1145 C.3     1  UNL1        0.1587
     23 C          63.6957   86.1836   16.0474 C.ar    1  UNL1        0.2223
     24 N          63.0479   85.9214   17.3747 N.ar    1  UNL1       -0.2092
     25 C          62.6485   87.2414   17.9645 C.ar    1  UNL1        0.1424
     26 C          63.0494   88.3196   17.0017 C.ar    1  UNL1        0.2018
     27 O          63.6966   87.6658   15.8169 O.2     1  UNL1       -0.4338
@<TRIPOS>BOND
     1    11    10    1
     2    11     1    1
     3     1     2    2
     4     2    18    1
     5    18    19    1
     6    19    20    1
     7    20    21    1
     8    20    22    1
     9    22    23    1
    10    23    24   ar
    11    24    25   ar
    12    25    26   ar
    13    26    27   ar
    14     2     3    1
    15     3     4    1
    16     4     5   ar
    17     5     6   ar
    18     6     7   ar
    19     7     8   ar
    20     8     9   ar
    21    11    12    1
    22    12    13   ar
    23    13    14   ar
    24    14    15   ar
    25    15    16   ar
    26    16    17   ar
    27     9     1    1
    28    17    12   ar
    29    27    23   ar
    30     9     4   ar
@<TRIPOS>MOLECULE
*****
 27 30 0 0 0
SMALL
GASTEIGER

@<TRIPOS>ATOM
      1 C          63.2032   88.4885   12.2704 C.2     1  UNL1       -0.0246
      2 C          63.8516   89.3204   13.3369 C.2     1  UNL1       -0.0421
      3 C          64.3170   88.3987   14.4248 C.3     1  UNL1        0.0480
      4 C          63.9563   86.9970   14.0307 C.ar    1  UNL1       -0.0184
      5 C          64.1657   85.6774   14.7123 C.ar    1  UNL1       -0.0040
      6 C          63.6868   84.4132   14.0624 C.ar    1  UNL1       -0.0003
      7 C          62.9984   84.4687   12.7308 C.ar    1  UNL1       -0.0000
      8 C          62.7889   85.7884   12.0492 C.ar    1  UNL1       -0.0006
      9 C          63.2679   87.0525   12.6992 C.ar    1  UNL1       -0.0079
     10 C          62.8133   90.4283   10.5865 C.3     1  UNL1        0.0111
     11 C          62.5965   89.0022   10.9983 C.3     1  UNL1        0.0634
     12 C          61.7732   88.0901   10.1381 C.ar    1  UNL1        0.0818
     13 C          60.2777   88.2064   10.1384 C.ar    1  UNL1        0.1139
     14 N          59.4544   87.2942    9.2782 N.ar    1  UNL1       -0.2394
     15 C          60.1264   86.2658    8.4176 C.ar    1  UNL1        0.1195
     16 C          61.6219   86.1495    8.4173 C.ar    1  UNL1        0.1191
     17 N          62.4453   87.0616    9.2775 N.ar    1  UNL1       -0.2446
     18 C          64.0072   90.8122   13.3186 C.3     1  UNL1        0.0394
     19 C          65.1625   91.4545   14.0275 C.3     1  UNL1        0.0769
     20 N          66.2212   92.1695   13.2413 N.3     1  UNL1       -0.2634
     21 C          67.6705   91.9373   13.5507 C.3     1  UNL1        0.0900
     22 C          65.8305   93.1167   12.1458 C.3     1  UNL1        0.1587
     23 C          66.7379   93.3167   10.9682 C.ar    1  UNL1        0.2223
     24 N          67.1497   94.6365   10.3865 N.ar    1  UNL1       -0.2092
     25 C          68.0591   94.3675    9.2244 C.ar    1  UNL1        0.1424
     26 C          68.2094   92.8813    9.0878 C.ar    1  UNL1        0.2018
     27 O          67.3928   92.2319   10.1656 O.2     1  UNL1       -0.4338
@<TRIPOS>BOND
     1    11    10    1
     2    11     1    1
     3     1     2    2
     4     2    18    1
     5    18    19    1
     6    19    20    1
     7    20    21    1
     8    20    22    1
     9    22    23    1
    10    23    24   ar
    11    24    25   ar
    12    25    26   ar
    13    26    27   ar
    14     2     3    1
    15     3     4    1
    16     4     5   ar
    17     5     6   ar
    18     6     7   ar
    19     7     8   ar
    20     8     9   ar
    21    11    12    1
    22    12    13   ar
    23    13    14   ar
    24    14    15   ar
    25    15    16   ar
    26    16    17   ar
    27     9     1    1
    28    17    12   ar
    29    27    23   ar
    30     9     4   ar
@<TRIPOS>MOLECULE
*****
 27 30 0 0 0
SMALL
GASTEIGER

@<TRIPOS>ATOM
      1 C          63.7446   89.0196   13.6364 C.2     1  UNL1       -0.0246
      2 C          63.0299   89.1845   12.3279 C.2     1  UNL1       -0.0421
      3 C          62.7740   87.8183   11.7642 C.3     1  UNL1        0.0480
      4 C          63.3305   86.8090   12.7242 C.ar    1  UNL1       -0.0184
      5 C          63.3685   85.3098   12.6943 C.ar    1  UNL1       -0.0040
      6 C          64.0064   84.5531   13.8214 C.ar    1  UNL1       -0.0003
      7 C          64.6063   85.2956   14.9785 C.ar    1  UNL1       -0.0000
      8 C          64.5683   86.7948   15.0085 C.ar    1  UNL1       -0.0006
      9 C          63.9304   87.5515   13.8813 C.ar    1  UNL1       -0.0079
     10 C          63.6224   90.2479   15.9226 C.3     1  UNL1        0.0111
     11 C          64.1945   90.1283   14.5411 C.3     1  UNL1        0.0634
     12 C          65.2165   91.1173   14.0644 C.ar    1  UNL1        0.0818
     13 C          66.6207   91.0564   14.5884 C.ar    1  UNL1        0.1139
     14 N          67.6427   92.0455   14.1117 N.ar    1  UNL1       -0.2394
     15 C          67.2605   93.0955   13.1110 C.ar    1  UNL1        0.1195
     16 C          65.8563   93.1565   12.5870 C.ar    1  UNL1        0.1191
     17 N          64.8343   92.1674   13.0637 N.ar    1  UNL1       -0.2446
     18 C          62.6397   90.4870   11.6944 C.3     1  UNL1        0.0394
     19 C          61.9532   90.4964   10.3608 C.3     1  UNL1        0.0769
     20 N          60.4976   90.1473   10.2641 N.3     1  UNL1       -0.2634
     21 C          59.6045   90.3181   11.4571 C.3     1  UNL1        0.0900
     22 C          59.9351   89.6275    8.9744 C.3     1  UNL1        0.1587
     23 C          60.1584   88.1972    8.5812 C.ar    1  UNL1        0.2223
     24 N          59.2238   87.3496    7.7700 N.ar    1  UNL1       -0.2092
     25 C          59.8433   85.9920    7.6176 C.ar    1  UNL1        0.1424
     26 C          61.1608   86.0006    8.3346 C.ar    1  UNL1        0.2018
     27 O          61.3556   87.3635    8.9301 O.2     1  UNL1       -0.4338
@<TRIPOS>BOND
     1    11    10    1
     2    11     1    1
     3     1     2    2
     4     2    18    1
     5    18    19    1
     6    19    20    1
     7    20    21    1
     8    20    22    1
     9    22    23    1
    10    23    24   ar
    11    24    25   ar
    12    25    26   ar
    13    26    27   ar
    14     2     3    1
    15     3     4    1
    16     4     5   ar
    17     5     6   ar
    18     6     7   ar
    19     7     8   ar
    20     8     9   ar
    21    11    12    1
    22    12    13   ar
    23    13    14   ar
    24    14    15   ar
    25    15    16   ar
    26    16    17   ar
    27     9     1    1
    28    17    12   ar
    29    27    23   ar
    30     9     4   ar
@<TRIPOS>MOLECULE
*****
 27 30 0 0 0
SMALL
GASTEIGER

@<TRIPOS>ATOM
      1 C          62.6312   85.2384   10.5629 C.2     1  UNL1       -0.0246
      2 C          62.5969   86.1892   11.7225 C.2     1  UNL1       -0.0421
      3 C          62.7940   85.3946   12.9794 C.3     1  UNL1        0.0480
      4 C          62.9500   83.9527   12.5966 C.ar    1  UNL1       -0.0184
      5 C          63.1708   82.7152   13.4150 C.ar    1  UNL1       -0.0040
      6 C          63.2909   81.3812   12.7399 C.ar    1  UNL1       -0.0003
      7 C          63.1903   81.2846   11.2464 C.ar    1  UNL1       -0.0000
      8 C          62.9695   82.5221   10.4280 C.ar    1  UNL1       -0.0006
      9 C          62.8494   83.8562   11.1031 C.ar    1  UNL1       -0.0079
     10 C          63.4893   85.1453    8.1123 C.3     1  UNL1        0.0111
     11 C          62.4747   85.6053    9.1169 C.3     1  UNL1        0.0634
     12 C          61.3037   86.4322    8.6754 C.ar    1  UNL1        0.0818
     13 C          60.2240   85.8158    7.8362 C.ar    1  UNL1        0.1139
     14 N          59.0530   86.6428    7.3948 N.ar    1  UNL1       -0.2394
     15 C          58.9617   88.0862    7.7924 C.ar    1  UNL1        0.1195
     16 C          60.0414   88.7027    8.6316 C.ar    1  UNL1        0.1191
     17 N          61.2124   87.8758    9.0731 N.ar    1  UNL1       -0.2446
     18 C          62.4001   87.6740   11.6398 C.3     1  UNL1        0.0394
     19 C          63.3357   88.5960   12.3638 C.3     1  UNL1        0.0769
     20 N          63.1386   90.0808   12.2815 N.3     1  UNL1       -0.2634
     21 C          62.0731   90.6476   11.3907 C.3     1  UNL1        0.0900
     22 C          64.0069   90.9986   13.0899 C.3     1  UNL1        0.1587
     23 C          64.8614   92.0218   12.4022 C.ar    1  UNL1        0.2223
     24 N          65.6353   93.1183   13.0720 N.ar    1  UNL1       -0.2092
     25 C          66.3442   93.9023   12.0077 C.ar    1  UNL1        0.1424
     26 C          66.0084   93.2903   10.6800 C.ar    1  UNL1        0.2018
     27 O          65.0920   92.1281   10.9238 O.2     1  UNL1       -0.4338
@<TRIPOS>BOND
     1    11    10    1
     2    11     1    1
     3     1     2    2
     4     2    18    1
     5    18    19    1
     6    19    20    1
     7    20    21    1
     8    20    22    1
     9    22    23    1
    10    23    24   ar
    11    24    25   ar
    12    25    26   ar
    13    26    27   ar
    14     2     3    1
    15     3     4    1
    16     4     5   ar
    17     5     6   ar
    18     6     7   ar
    19     7     8   ar
    20     8     9   ar
    21    11    12    1
    22    12    13   ar
    23    13    14   ar
    24    14    15   ar
    25    15    16   ar
    26    16    17   ar
    27     9     1    1
    28    17    12   ar
    29    27    23   ar
    30     9     4   ar
@<TRIPOS>MOLECULE
*****
 27 30 0 0 0
SMALL
GASTEIGER

@<TRIPOS>ATOM
      1 C          62.1228   87.7635   11.0917 C.2     1  UNL1       -0.0246
      2 C          62.5538   86.5706   11.8925 C.2     1  UNL1       -0.0421
      3 C          63.4622   87.0500   12.9857 C.3     1  UNL1        0.0480
      4 C          63.5926   88.5390   12.8605 C.ar    1  UNL1       -0.0184
      5 C          64.3582   89.5504   13.6612 C.ar    1  UNL1       -0.0040
      6 C          64.2959   91.0027   13.2913 C.ar    1  UNL1       -0.0003
      7 C          63.4681   91.4437   12.1207 C.ar    1  UNL1       -0.0000
      8 C          62.7025   90.4324   11.3200 C.ar    1  UNL1       -0.0006
      9 C          62.7648   88.9800   11.6899 C.ar    1  UNL1       -0.0079
     10 C          60.1266   88.7725    9.7698 C.3     1  UNL1        0.0111
     11 C          61.2101   87.7434    9.9015 C.3     1  UNL1        0.0634
     12 C          61.3806   86.6943    8.8432 C.ar    1  UNL1        0.0818
     13 C          60.2055   86.2666    8.0148 C.ar    1  UNL1        0.1139
     14 N          60.3761   85.2174    6.9564 N.ar    1  UNL1       -0.2394
     15 C          61.7217   84.5960    6.7263 C.ar    1  UNL1        0.1195
     16 C          62.8969   85.0236    7.5547 C.ar    1  UNL1        0.1191
     17 N          62.7263   86.0728    8.6131 N.ar    1  UNL1       -0.2446
     18 C          62.1478   85.1482   11.6438 C.3     1  UNL1        0.0394
     19 C          63.1663   84.0508   11.7341 C.3     1  UNL1        0.0769
     20 N          62.7996   82.7366   12.3575 N.3     1  UNL1       -0.2634
     21 C          62.8736   81.4759   11.5480 C.3     1  UNL1        0.0900
     22 C          62.3588   82.6832   13.7902 C.3     1  UNL1        0.1587
     23 C          62.7721   83.7656   14.7429 C.ar    1  UNL1        0.2223
     24 N          64.1813   84.1330   15.1024 N.ar    1  UNL1       -0.2092
     25 C          64.1289   85.2651   16.0851 C.ar    1  UNL1        0.1424
     26 C          62.6873   85.5973   16.3330 C.ar    1  UNL1        0.2018
     27 O          61.8488   84.6706   15.5035 O.2     1  UNL1       -0.4338
@<TRIPOS>BOND
     1    11    10    1
     2    11     1    1
     3     1     2    2
     4     2    18    1
     5    18    19    1
     6    19    20    1
     7    20    21    1
     8    20    22    1
     9    22    23    1
    10    23    24   ar
    11    24    25   ar
    12    25    26   ar
    13    26    27   ar
    14     2     3    1
    15     3     4    1
    16     4     5   ar
    17     5     6   ar
    18     6     7   ar
    19     7     8   ar
    20     8     9   ar
    21    11    12    1
    22    12    13   ar
    23    13    14   ar
    24    14    15   ar
    25    15    16   ar
    26    16    17   ar
    27     9     1    1
    28    17    12   ar
    29    27    23   ar
    30     9     4   ar
@<TRIPOS>MOLECULE
*****
 27 30 0 0 0
SMALL
GASTEIGER

@<TRIPOS>ATOM
      1 C          62.9029   85.9599   11.9991 C.2     1  UNL1       -0.0246
      2 C          63.4851   86.8229   13.0789 C.2     1  UNL1       -0.0421
      3 C          63.9567   85.9262   14.1851 C.3     1  UNL1        0.0480
      4 C          63.6660   84.5090   13.7888 C.ar    1  UNL1       -0.0184
      5 C          63.9101   83.2024   14.4837 C.ar    1  UNL1       -0.0040
      6 C          63.5029   81.9165   13.8275 C.ar    1  UNL1       -0.0003
      7 C          62.8516   81.9372   12.4765 C.ar    1  UNL1       -0.0000
      8 C          62.6075   83.2439   11.7816 C.ar    1  UNL1       -0.0006
      9 C          63.0146   84.5298   12.4378 C.ar    1  UNL1       -0.0079
     10 C          62.4309   85.6035    9.4691 C.3     1  UNL1        0.0111
     11 C          62.3126   86.4422   10.7072 C.3     1  UNL1        0.0634
     12 C          61.6038   87.7630   10.6533 C.ar    1  UNL1        0.0818
     13 C          60.2058   87.8863   11.1827 C.ar    1  UNL1        0.1139
     14 N          59.4971   89.2072   11.1288 N.ar    1  UNL1       -0.2394
     15 C          60.1864   90.4049   10.5455 C.ar    1  UNL1        0.1195
     16 C          61.5845   90.2818   10.0160 C.ar    1  UNL1        0.1191
     17 N          62.2932   88.9608   10.0700 N.ar    1  UNL1       -0.2446
     18 C          63.5793   88.3198   13.0566 C.3     1  UNL1        0.0394
     19 C          64.3199   89.0410   14.1434 C.3     1  UNL1        0.0769
     20 N          64.5045   90.5276   14.0663 N.3     1  UNL1       -0.2634
     21 C          64.2903   91.2435   12.7655 C.3     1  UNL1        0.0900
     22 C          64.9032   91.2984   15.2897 C.3     1  UNL1        0.1587
     23 C          66.2513   91.9526   15.3577 C.ar    1  UNL1        0.2223
     24 N          66.6832   92.9800   16.3617 N.ar    1  UNL1       -0.2092
     25 C          68.1030   93.3567   16.0582 C.ar    1  UNL1        0.1424
     26 C          68.5488   92.5621   14.8666 C.ar    1  UNL1        0.2018
     27 O          67.4044   91.6943   14.4337 O.2     1  UNL1       -0.4338
@<TRIPOS>BOND
     1    11    10    1
     2    11     1    1
     3     1     2    2
     4     2    18    1
     5    18    19    1
     6    19    20    1
     7    20    21    1
     8    20    22    1
     9    22    23    1
    10    23    24   ar
    11    24    25   ar
    12    25    26   ar
    13    26    27   ar
    14     2     3    1
    15     3     4    1
    16     4     5   ar
    17     5     6   ar
    18     6     7   ar
    19     7     8   ar
    20     8     9   ar
    21    11    12    1
    22    12    13   ar
    23    13    14   ar
    24    14    15   ar
    25    15    16   ar
    26    16    17   ar
    27     9     1    1
    28    17    12   ar
    29    27    23   ar
    30     9     4   ar
