@<TRIPOS>MOLECULE
*****
 32 34 0 0 0
SMALL
GASTEIGER

@<TRIPOS>ATOM
      1 C          62.3013   89.5889   11.1803 C.3     1  UNL1        0.2103
      2 C          62.8064   88.4157   11.9669 C.3     1  UNL1        0.1418
      3 N          62.1970   87.1729   11.3887 N.3     1  UNL1       -0.1492
      4 C          61.3152   87.5780   10.2448 C.3     1  UNL1        0.1277
      5 C          61.3797   89.0711   10.1159 C.3     1  UNL1        0.1566
      6 O          61.2457   90.5192    9.7486 O.3     1  UNL1       -0.3804
      7 H          60.6433   90.6067    8.9934 H       1  UNL1        0.2105
      8 C          60.4301   88.8561    8.9748 C.3     1  UNL1        0.0975
      9 N          59.9590   87.4715    8.6419 N.3     1  UNL1       -0.3191
     10 H          60.7477   86.9134    8.3151 H       1  UNL1        0.1189
     11 H          59.2504   87.5204    7.9098 H       1  UNL1        0.1189
     12 S          62.4286   85.7713   11.8700 S.O2    1  UNL1        0.0643
     13 O          61.4934   85.2551   10.8168 O.2     1  UNL1       -0.1527
     14 O          63.3637   86.2874   12.9231 O.2     1  UNL1       -0.1527
     15 C          62.6602   84.3696   12.3512 C.ar    1  UNL1        0.1327
     16 C          62.2495   83.9756   13.7390 C.ar    1  UNL1        0.0216
     17 C          62.4811   82.5740   14.2203 C.ar    1  UNL1        0.0128
     18 C          63.1235   81.5663   13.3138 C.ar    1  UNL1        0.0586
     19 CL         63.3551   80.1646   13.7950 Cl      1  UNL1       -0.0822
     20 C          63.5342   81.9602   11.9259 C.ar    1  UNL1        0.0241
     21 C          63.3026   83.3619   11.4447 C.ar    1  UNL1        0.0771
     22 CL         63.7133   83.7559   10.0568 Cl      1  UNL1       -0.0808
     23 O          62.6556   91.0271   11.4165 O.3     1  UNL1       -0.4751
     24 C          66.5481   92.0876   13.4098 C.ar    1  UNL1        0.0960
     25 C          65.5298   91.2655   14.1426 C.ar    1  UNL1        0.0157
     26 C          64.2323   90.9120   13.4782 C.ar    1  UNL1        0.0377
     27 C          63.9531   91.3806   12.0809 C.ar    1  UNL1        0.1408
     28 C          64.9714   92.2027   11.3481 C.ar    1  UNL1        0.0672
     29 C          66.2690   92.5562   12.0125 C.ar    1  UNL1        0.1527
     30 F          67.2873   93.3783   11.2796 F       1  UNL1       -0.2034
     31 N          69.1432   92.7945   14.7387 N.1     1  UNL1       -0.1908
     32 C          67.8457   92.4410   14.0742 C.1     1  UNL1        0.1027
@<TRIPOS>BOND
     1    31    32    3
     2    32    24    1
     3    24    25   ar
     4    25    26   ar
     5    26    27   ar
     6    27    23    1
     7     1    23    1
     8     1     2    1
     9     2     3    1
    10     3    12    1
    11    12    13    2
    12    12    14    2
    13    12    15    1
    14    15    16   ar
    15    16    17   ar
    16    17    18   ar
    17    18    19    1
    18    18    20   ar
    19    20    21   ar
    20    21    22    1
    21     3     4    1
    22     4     5    1
    23     5     6    1
    24     5     8    1
    25     8     9    1
    26    27    28   ar
    27    28    29   ar
    28    29    30    1
    29    29    24   ar
    30     5     1    1
    31    21    15   ar
    32     6     7    1
    33     9    10    1
    34     9    11    1
@<TRIPOS>MOLECULE
*****
 32 34 0 0 0
SMALL
GASTEIGER

@<TRIPOS>ATOM
      1 C          62.2319   89.5987   10.9851 C.3     1  UNL1        0.2103
      2 C          62.8158   88.4546   11.7598 C.3     1  UNL1        0.1418
      3 N          62.1332   87.1958   11.3129 N.3     1  UNL1       -0.1492
      4 C          61.1274   87.5620   10.2620 C.3     1  UNL1        0.1277
      5 C          61.1884   89.0470   10.0594 C.3     1  UNL1        0.1566
      6 O          61.0241   90.4792    9.6451 O.3     1  UNL1       -0.3804
      7 H          60.3385   90.5416    8.9618 H       1  UNL1        0.2105
      8 C          60.1106   88.7948    9.0471 C.3     1  UNL1        0.0975
      9 N          59.6740   87.3908    8.7504 N.3     1  UNL1       -0.3191
     10 H          60.4417   86.8813    8.3128 H       1  UNL1        0.1189
     11 H          58.8743   87.4099    8.1176 H       1  UNL1        0.1189
     12 S          62.4080   85.8136   11.8267 S.O2    1  UNL1        0.0643
     13 O          61.4577   85.2479   10.8132 O.2     1  UNL1       -0.1527
     14 O          63.3583   86.3793   12.8401 O.2     1  UNL1       -0.1527
     15 C          62.6829   84.4315   12.3405 C.ar    1  UNL1        0.1327
     16 C          62.2766   84.0549   13.7344 C.ar    1  UNL1        0.0216
     17 C          62.5515   82.6727   14.2482 C.ar    1  UNL1        0.0128
     18 C          63.2327   81.6671   13.3681 C.ar    1  UNL1        0.0586
     19 CL         63.5076   80.2850   13.8819 Cl      1  UNL1       -0.0822
     20 C          63.6391   82.0437   11.9742 C.ar    1  UNL1        0.0241
     21 C          63.3642   83.4259   11.4604 C.ar    1  UNL1        0.0771
     22 CL         63.7705   83.8024   10.0664 Cl      1  UNL1       -0.0808
     23 O          62.6229   91.0411   11.1134 O.3     1  UNL1       -0.4751
     24 C          66.3919   92.1648   13.3002 C.ar    1  UNL1        0.0960
     25 C          66.2399   92.5005   11.8462 C.ar    1  UNL1        0.0157
     26 C          64.9836   92.1260   11.1173 C.ar    1  UNL1        0.0377
     27 C          63.8792   91.4156   11.8424 C.ar    1  UNL1        0.1408
     28 C          64.0312   91.0799   13.2963 C.ar    1  UNL1        0.0672
     29 C          65.2875   91.4544   14.0253 C.ar    1  UNL1        0.1527
     30 F          65.4394   91.1186   15.4793 F       1  UNL1       -0.2034
     31 N          68.9045   92.9139   14.7581 N.1     1  UNL1       -0.1908
     32 C          67.6482   92.5393   14.0291 C.1     1  UNL1        0.1027
@<TRIPOS>BOND
     1    31    32    3
     2    32    24    1
     3    24    25   ar
     4    25    26   ar
     5    26    27   ar
     6    27    23    1
     7     1    23    1
     8     1     2    1
     9     2     3    1
    10     3    12    1
    11    12    13    2
    12    12    14    2
    13    12    15    1
    14    15    16   ar
    15    16    17   ar
    16    17    18   ar
    17    18    19    1
    18    18    20   ar
    19    20    21   ar
    20    21    22    1
    21     3     4    1
    22     4     5    1
    23     5     6    1
    24     5     8    1
    25     8     9    1
    26    27    28   ar
    27    28    29   ar
    28    29    30    1
    29    29    24   ar
    30     5     1    1
    31    21    15   ar
    32     6     7    1
    33     9    10    1
    34     9    11    1
@<TRIPOS>MOLECULE
*****
 32 34 0 0 0
SMALL
GASTEIGER

@<TRIPOS>ATOM
      1 C          63.8589   88.6503   15.3379 C.3     1  UNL1        0.2103
      2 C          63.9923   87.7704   14.1304 C.3     1  UNL1        0.1418
      3 N          63.5483   86.3893   14.5119 N.3     1  UNL1       -0.1492
      4 C          63.1405   86.4156   15.9552 C.3     1  UNL1        0.1277
      5 C          63.3325   87.8130   16.4657 C.3     1  UNL1        0.1566
      6 O          63.4182   89.0911   17.2461 O.3     1  UNL1       -0.3804
      7 H          63.1195   88.9352   18.1557 H       1  UNL1        0.2105
      8 C          62.8241   87.2429   17.7567 C.3     1  UNL1        0.0975
      9 N          62.0971   85.9309   17.7624 N.3     1  UNL1       -0.3191
     10 H          61.2149   86.0289   17.2598 H       1  UNL1        0.1189
     11 H          61.9106   85.6497   18.7250 H       1  UNL1        0.1189
     12 S          63.5174   85.1921   13.6087 S.O2    1  UNL1        0.0643
     13 O          62.3296   85.7632   12.8923 O.2     1  UNL1       -0.1527
     14 O          64.7051   84.6211   14.3251 O.2     1  UNL1       -0.1527
     15 C          63.4866   83.9949   12.7055 C.ar    1  UNL1        0.1327
     16 C          64.1441   84.0544   11.3587 C.ar    1  UNL1        0.0216
     17 C          64.1132   82.8572   10.4555 C.ar    1  UNL1        0.0128
     18 C          63.4249   81.6006   10.8991 C.ar    1  UNL1        0.0586
     19 CL         63.3940   80.4034    9.9959 Cl      1  UNL1       -0.0822
     20 C          62.7673   81.5411   12.2460 C.ar    1  UNL1        0.0241
     21 C          62.7982   82.7383   13.1492 C.ar    1  UNL1        0.0771
     22 CL         62.1406   82.6788   14.4961 Cl      1  UNL1       -0.0808
     23 O          64.1933   90.1110   15.4057 O.3     1  UNL1       -0.4751
     24 C          65.9040   92.1972   11.8042 C.ar    1  UNL1        0.0960
     25 C          66.7346   92.0369   13.0430 C.ar    1  UNL1        0.0157
     26 C          66.1643   91.3414   14.2434 C.ar    1  UNL1        0.0377
     27 C          64.7635   90.8064   14.2052 C.ar    1  UNL1        0.1408
     28 C          63.9330   90.9668   12.9665 C.ar    1  UNL1        0.0672
     29 C          64.5033   91.6622   11.7660 C.ar    1  UNL1        0.1527
     30 F          63.6727   91.8226   10.5272 F       1  UNL1       -0.2034
     31 N          67.0446   93.5881    9.4032 N.1     1  UNL1       -0.1908
     32 C          66.4743   92.8927   10.6037 C.1     1  UNL1        0.1027
@<TRIPOS>BOND
     1    31    32    3
     2    32    24    1
     3    24    25   ar
     4    25    26   ar
     5    26    27   ar
     6    27    23    1
     7     1    23    1
     8     1     2    1
     9     2     3    1
    10     3    12    1
    11    12    13    2
    12    12    14    2
    13    12    15    1
    14    15    16   ar
    15    16    17   ar
    16    17    18   ar
    17    18    19    1
    18    18    20   ar
    19    20    21   ar
    20    21    22    1
    21     3     4    1
    22     4     5    1
    23     5     6    1
    24     5     8    1
    25     8     9    1
    26    27    28   ar
    27    28    29   ar
    28    29    30    1
    29    29    24   ar
    30     5     1    1
    31    21    15   ar
    32     6     7    1
    33     9    10    1
    34     9    11    1
@<TRIPOS>MOLECULE
*****
 32 34 0 0 0
SMALL
GASTEIGER

@<TRIPOS>ATOM
      1 C          63.0508   89.9077   12.8170 C.3     1  UNL1        0.2103
      2 C          63.5186   90.7210   11.6466 C.3     1  UNL1        0.1418
      3 N          64.4960   91.7406   12.1518 N.3     1  UNL1       -0.1492
      4 C          64.6322   91.5575   13.6344 C.3     1  UNL1        0.1277
      5 C          63.7390   90.4247   14.0455 C.3     1  UNL1        0.1566
      6 O          62.9554   89.3532   14.7439 O.3     1  UNL1       -0.3804
      7 H          63.1582   89.3705   15.6923 H       1  UNL1        0.2105
      8 C          64.2634   90.7177   15.4200 C.3     1  UNL1        0.0975
      9 N          63.3226   90.7647   16.5873 N.3     1  UNL1       -0.3191
     10 H          62.6832   91.5517   16.4772 H       1  UNL1        0.1189
     11 H          63.8559   90.8779   17.4494 H       1  UNL1        0.1189
     12 S          65.2116   92.7637   11.3204 S.O2    1  UNL1        0.0643
     13 O          66.0602   93.1302   12.5018 O.2     1  UNL1       -0.1527
     14 O          64.3630   92.3972   10.1391 O.2     1  UNL1       -0.1527
     15 C          65.9271   93.7868   10.4889 C.ar    1  UNL1        0.1327
     16 C          65.3873   95.1826   10.3889 C.ar    1  UNL1        0.0216
     17 C          66.1029   96.2057    9.5575 C.ar    1  UNL1        0.0128
     18 C          67.3582   95.8329    8.8261 C.ar    1  UNL1        0.0586
     19 CL         68.0738   96.8560    7.9947 Cl      1  UNL1       -0.0822
     20 C          67.8981   94.4370    8.9261 C.ar    1  UNL1        0.0241
     21 C          67.1825   93.4139    9.7575 C.ar    1  UNL1        0.0771
     22 CL         67.7224   92.0180    9.8576 Cl      1  UNL1       -0.0808
     23 O          62.0674   88.7761   12.7676 O.3     1  UNL1       -0.4751
     24 C          61.4732   86.4768    8.9453 C.ar    1  UNL1        0.0960
     25 C          62.2396   85.8623   10.0788 C.ar    1  UNL1        0.0157
     26 C          62.4377   86.6287   11.3529 C.ar    1  UNL1        0.0377
     27 C          61.8693   88.0097   11.4935 C.ar    1  UNL1        0.1408
     28 C          61.1028   88.6242   10.3600 C.ar    1  UNL1        0.0672
     29 C          60.9048   87.8578    9.0859 C.ar    1  UNL1        0.1527
     30 F          60.1383   88.4723    7.9524 F       1  UNL1       -0.2034
     31 N          61.0770   84.9439    6.3971 N.1     1  UNL1       -0.1908
     32 C          61.2751   85.7103    7.6712 C.1     1  UNL1        0.1027
@<TRIPOS>BOND
     1    31    32    3
     2    32    24    1
     3    24    25   ar
     4    25    26   ar
     5    26    27   ar
     6    27    23    1
     7     1    23    1
     8     1     2    1
     9     2     3    1
    10     3    12    1
    11    12    13    2
    12    12    14    2
    13    12    15    1
    14    15    16   ar
    15    16    17   ar
    16    17    18   ar
    17    18    19    1
    18    18    20   ar
    19    20    21   ar
    20    21    22    1
    21     3     4    1
    22     4     5    1
    23     5     6    1
    24     5     8    1
    25     8     9    1
    26    27    28   ar
    27    28    29   ar
    28    29    30    1
    29    29    24   ar
    30     5     1    1
    31    21    15   ar
    32     6     7    1
    33     9    10    1
    34     9    11    1
@<TRIPOS>MOLECULE
*****
 32 34 0 0 0
SMALL
GASTEIGER

@<TRIPOS>ATOM
      1 C          62.0424   87.9974   11.2186 C.3     1  UNL1        0.2103
      2 C          63.2596   88.3511   12.0207 C.3     1  UNL1        0.1418
      3 N          63.1931   89.8146   12.3432 N.3     1  UNL1       -0.1492
      4 C          61.9347   90.3654   11.7405 C.3     1  UNL1        0.1277
      5 C          61.2236   89.2424   11.0454 C.3     1  UNL1        0.1566
      6 O          60.3009   88.3402   10.2807 O.3     1  UNL1       -0.3804
      7 H          59.5410   88.8510    9.9608 H       1  UNL1        0.2105
      8 C          60.2119   90.2986   10.7124 C.3     1  UNL1        0.0975
      9 N          59.2430   90.7652   11.7580 N.3     1  UNL1       -0.3191
     10 H          58.6157   90.0001   12.0059 H       1  UNL1        0.1189
     11 H          58.6985   91.5465   11.3925 H       1  UNL1        0.1189
     12 S          64.2069   90.5909   13.1303 S.O2    1  UNL1        0.0643
     13 O          63.8594   91.8285   12.3572 O.2     1  UNL1       -0.1527
     14 O          64.5544   89.3533   13.9034 O.2     1  UNL1       -0.1527
     15 C          65.2207   91.3672   13.9174 C.ar    1  UNL1        0.1327
     16 C          66.4569   91.8847   13.2439 C.ar    1  UNL1        0.0216
     17 C          67.4707   92.6610   14.0310 C.ar    1  UNL1        0.0128
     18 C          67.2483   92.9198   15.4916 C.ar    1  UNL1        0.0586
     19 CL         68.2621   93.6961   16.2787 Cl      1  UNL1       -0.0822
     20 C          66.0120   92.4022   16.1652 C.ar    1  UNL1        0.0241
     21 C          64.9982   91.6259   15.3781 C.ar    1  UNL1        0.0771
     22 CL         63.7618   91.1084   16.0516 Cl      1  UNL1       -0.0808
     23 O          61.7034   86.6377   10.6836 O.3     1  UNL1       -0.4751
     24 C          63.1250   82.9528   12.8400 C.ar    1  UNL1        0.0960
     25 C          63.2381   83.0384   11.3468 C.ar    1  UNL1        0.0157
     26 C          62.7642   84.2668   10.6279 C.ar    1  UNL1        0.0377
     27 C          62.1773   85.4094   11.4024 C.ar    1  UNL1        0.1408
     28 C          62.0642   85.3237   12.8956 C.ar    1  UNL1        0.0672
     29 C          62.5380   84.0954   13.6144 C.ar    1  UNL1        0.1527
     30 F          62.4249   84.0098   15.1077 F       1  UNL1       -0.2034
     31 N          64.0727   80.4961   14.2776 N.1     1  UNL1       -0.1908
     32 C          63.5988   81.7244   13.5588 C.1     1  UNL1        0.1027
@<TRIPOS>BOND
     1    31    32    3
     2    32    24    1
     3    24    25   ar
     4    25    26   ar
     5    26    27   ar
     6    27    23    1
     7     1    23    1
     8     1     2    1
     9     2     3    1
    10     3    12    1
    11    12    13    2
    12    12    14    2
    13    12    15    1
    14    15    16   ar
    15    16    17   ar
    16    17    18   ar
    17    18    19    1
    18    18    20   ar
    19    20    21   ar
    20    21    22    1
    21     3     4    1
    22     4     5    1
    23     5     6    1
    24     5     8    1
    25     8     9    1
    26    27    28   ar
    27    28    29   ar
    28    29    30    1
    29    29    24   ar
    30     5     1    1
    31    21    15   ar
    32     6     7    1
    33     9    10    1
    34     9    11    1
@<TRIPOS>MOLECULE
*****
 32 34 0 0 0
SMALL
GASTEIGER

@<TRIPOS>ATOM
      1 C          61.9228   88.1177   11.1139 C.3     1  UNL1        0.2103
      2 C          63.1413   88.4822   11.9092 C.3     1  UNL1        0.1418
      3 N          63.0803   89.9518   12.2035 N.3     1  UNL1       -0.1492
      4 C          61.8240   90.4956   11.5901 C.3     1  UNL1        0.1277
      5 C          61.1087   89.3621   10.9167 C.3     1  UNL1        0.1566
      6 O          60.1827   88.4489   10.1694 O.3     1  UNL1       -0.3804
      7 H          59.4247   88.9563    9.8396 H       1  UNL1        0.2105
      8 C          60.1010   90.4155   10.5632 C.3     1  UNL1        0.0975
      9 N          59.1888   90.9653   11.6195 N.3     1  UNL1       -0.3191
     10 H          58.5605   90.2296   11.9426 H       1  UNL1        0.1189
     11 H          58.6416   91.7330   11.2302 H       1  UNL1        0.1189
     12 S          64.0969   90.7393   12.9756 S.O2    1  UNL1        0.0643
     13 O          63.6469   91.9943   12.2881 O.2     1  UNL1       -0.1527
     14 O          64.5469   89.4844   13.6631 O.2     1  UNL1       -0.1527
     15 C          65.1136   91.5269   13.7477 C.ar    1  UNL1        0.1327
     16 C          65.0525   91.5654   15.2459 C.ar    1  UNL1        0.0216
     17 C          66.0691   92.3529   16.0180 C.ar    1  UNL1        0.0128
     18 C          67.1469   93.1019   15.2920 C.ar    1  UNL1        0.0586
     19 CL         68.1636   93.8894   16.0641 Cl      1  UNL1       -0.0822
     20 C          67.2081   93.0634   13.7937 C.ar    1  UNL1        0.0241
     21 C          66.1914   92.2758   13.0216 C.ar    1  UNL1        0.0771
     22 CL         66.2526   92.2373   11.5233 Cl      1  UNL1       -0.0808
     23 O          61.5788   86.7492   10.6052 O.3     1  UNL1       -0.4751
     24 C          63.1923   83.1023   12.6900 C.ar    1  UNL1        0.0960
     25 C          62.5433   84.1956   13.4859 C.ar    1  UNL1        0.0157
     26 C          62.0055   85.4112   12.7909 C.ar    1  UNL1        0.0377
     27 C          62.1166   85.5336   11.3001 C.ar    1  UNL1        0.1408
     28 C          62.7656   84.4403   10.5042 C.ar    1  UNL1        0.0672
     29 C          63.3035   83.2247   11.1992 C.ar    1  UNL1        0.1527
     30 F          63.9525   82.1314   10.4032 F       1  UNL1       -0.2034
     31 N          64.2681   80.6711   14.0799 N.1     1  UNL1       -0.1908
     32 C          63.7302   81.8867   13.3849 C.1     1  UNL1        0.1027
@<TRIPOS>BOND
     1    31    32    3
     2    32    24    1
     3    24    25   ar
     4    25    26   ar
     5    26    27   ar
     6    27    23    1
     7     1    23    1
     8     1     2    1
     9     2     3    1
    10     3    12    1
    11    12    13    2
    12    12    14    2
    13    12    15    1
    14    15    16   ar
    15    16    17   ar
    16    17    18   ar
    17    18    19    1
    18    18    20   ar
    19    20    21   ar
    20    21    22    1
    21     3     4    1
    22     4     5    1
    23     5     6    1
    24     5     8    1
    25     8     9    1
    26    27    28   ar
    27    28    29   ar
    28    29    30    1
    29    29    24   ar
    30     5     1    1
    31    21    15   ar
    32     6     7    1
    33     9    10    1
    34     9    11    1
@<TRIPOS>MOLECULE
*****
 32 34 0 0 0
SMALL
GASTEIGER

@<TRIPOS>ATOM
      1 C          61.9843   88.3053   11.9434 C.3     1  UNL1        0.2103
      2 C          63.2444   88.5914   12.7052 C.3     1  UNL1        0.1418
      3 N          63.4246   90.0796   12.7609 N.3     1  UNL1       -0.1492
      4 C          62.2758   90.7131   12.0335 C.3     1  UNL1        0.1277
      5 C          61.3857   89.6166   11.5283 C.3     1  UNL1        0.1566
      6 O          60.3241   88.7566   10.9092 O.3     1  UNL1       -0.3804
      7 H          59.6603   89.3199   10.4816 H       1  UNL1        0.2105
      8 C          60.5652   90.7480   10.9837 C.3     1  UNL1        0.0975
      9 N          59.2111   91.0378   11.5603 N.3     1  UNL1       -0.3191
     10 H          58.5828   90.2596   11.3604 H       1  UNL1        0.1189
     11 H          58.8393   91.8909   11.1428 H       1  UNL1        0.1189
     12 S          64.5550   90.8066   13.4270 S.O2    1  UNL1        0.0643
     13 O          64.2478   92.0292   12.6140 O.2     1  UNL1       -0.1527
     14 O          64.8621   89.5840   14.2400 O.2     1  UNL1       -0.1527
     15 C          65.6854   91.5335   14.0931 C.ar    1  UNL1        0.1327
     16 C          66.9615   91.7821   13.3451 C.ar    1  UNL1        0.0216
     17 C          68.0919   92.5090   14.0112 C.ar    1  UNL1        0.0128
     18 C          67.9462   92.9874   15.4253 C.ar    1  UNL1        0.0586
     19 CL         69.0766   93.7143   16.0914 Cl      1  UNL1       -0.0822
     20 C          66.6700   92.7388   16.1734 C.ar    1  UNL1        0.0241
     21 C          65.5396   92.0118   15.5073 C.ar    1  UNL1        0.0771
     22 CL         64.2634   91.7632   16.2554 Cl      1  UNL1       -0.0808
     23 O          61.4216   86.9465   11.6485 O.3     1  UNL1       -0.4751
     24 C          61.7570   85.2229    7.5052 C.ar    1  UNL1        0.0960
     25 C          62.8881   85.0640    8.4775 C.ar    1  UNL1        0.0157
     26 C          62.7763   85.6385    9.8586 C.ar    1  UNL1        0.0377
     27 C          61.5334   86.3720   10.2674 C.ar    1  UNL1        0.1408
     28 C          60.4023   86.5309    9.2952 C.ar    1  UNL1        0.0672
     29 C          60.5141   85.9564    7.9141 C.ar    1  UNL1        0.1527
     30 F          59.3829   86.1153    6.9419 F       1  UNL1       -0.2034
     31 N          61.9806   84.0739    4.7430 N.1     1  UNL1       -0.1908
     32 C          61.8688   84.6484    6.1241 C.1     1  UNL1        0.1027
@<TRIPOS>BOND
     1    31    32    3
     2    32    24    1
     3    24    25   ar
     4    25    26   ar
     5    26    27   ar
     6    27    23    1
     7     1    23    1
     8     1     2    1
     9     2     3    1
    10     3    12    1
    11    12    13    2
    12    12    14    2
    13    12    15    1
    14    15    16   ar
    15    16    17   ar
    16    17    18   ar
    17    18    19    1
    18    18    20   ar
    19    20    21   ar
    20    21    22    1
    21     3     4    1
    22     4     5    1
    23     5     6    1
    24     5     8    1
    25     8     9    1
    26    27    28   ar
    27    28    29   ar
    28    29    30    1
    29    29    24   ar
    30     5     1    1
    31    21    15   ar
    32     6     7    1
    33     9    10    1
    34     9    11    1
@<TRIPOS>MOLECULE
*****
 32 34 0 0 0
SMALL
GASTEIGER

@<TRIPOS>ATOM
      1 C          63.7954   88.7148   15.4233 C.3     1  UNL1        0.2103
      2 C          63.9305   87.8322   14.2179 C.3     1  UNL1        0.1418
      3 N          63.5279   86.4424   14.6136 N.3     1  UNL1       -0.1492
      4 C          63.1440   86.4661   16.0635 C.3     1  UNL1        0.1277
      5 C          63.3093   87.8704   16.5639 C.3     1  UNL1        0.1566
      6 O          63.3759   89.1544   17.3365 O.3     1  UNL1       -0.3804
      7 H          63.0966   88.9958   18.2518 H       1  UNL1        0.2105
      8 C          62.8372   87.2946   17.8660 C.3     1  UNL1        0.0975
      9 N          62.1359   85.9688   17.8893 N.3     1  UNL1       -0.3191
     10 H          61.2424   86.0482   17.4038 H       1  UNL1        0.1189
     11 H          61.9737   85.6870   18.8561 H       1  UNL1        0.1189
     12 S          63.5121   85.2401   13.7168 S.O2    1  UNL1        0.0643
     13 O          64.9812   85.0466   13.9502 O.2     1  UNL1       -0.1527
     14 O          62.0430   85.4336   13.4834 O.2     1  UNL1       -0.1527
     15 C          63.4962   84.0378   12.8200 C.ar    1  UNL1        0.1327
     16 C          63.8463   82.6871   13.3702 C.ar    1  UNL1        0.0216
     17 C          63.8304   81.4848   12.4735 C.ar    1  UNL1        0.0128
     18 C          63.4644   81.6332   11.0265 C.ar    1  UNL1        0.0586
     19 CL         63.4485   80.4310   10.1297 Cl      1  UNL1       -0.0822
     20 C          63.1142   82.9840   10.4762 C.ar    1  UNL1        0.0241
     21 C          63.1301   84.1863   11.3730 C.ar    1  UNL1        0.0771
     22 CL         62.7799   85.5371   10.8227 Cl      1  UNL1       -0.0808
     23 O          64.0940   90.1837   15.4784 O.3     1  UNL1       -0.4751
     24 C          66.3014   92.1598   12.0913 C.ar    1  UNL1        0.0960
     25 C          64.8339   91.8762   11.9659 C.ar    1  UNL1        0.0157
     26 C          64.0980   91.2175   13.0949 C.ar    1  UNL1        0.0377
     27 C          64.8298   90.8424   14.3494 C.ar    1  UNL1        0.1408
     28 C          66.2973   91.1260   14.4749 C.ar    1  UNL1        0.0672
     29 C          67.0332   91.7847   13.3458 C.ar    1  UNL1        0.1527
     30 F          68.5008   92.0683   13.4714 F       1  UNL1       -0.2034
     31 N          67.7731   93.4772    9.8333 N.1     1  UNL1       -0.1908
     32 C          67.0372   92.8185   10.9623 C.1     1  UNL1        0.1027
@<TRIPOS>BOND
     1    31    32    3
     2    32    24    1
     3    24    25   ar
     4    25    26   ar
     5    26    27   ar
     6    27    23    1
     7     1    23    1
     8     1     2    1
     9     2     3    1
    10     3    12    1
    11    12    13    2
    12    12    14    2
    13    12    15    1
    14    15    16   ar
    15    16    17   ar
    16    17    18   ar
    17    18    19    1
    18    18    20   ar
    19    20    21   ar
    20    21    22    1
    21     3     4    1
    22     4     5    1
    23     5     6    1
    24     5     8    1
    25     8     9    1
    26    27    28   ar
    27    28    29   ar
    28    29    30    1
    29    29    24   ar
    30     5     1    1
    31    21    15   ar
    32     6     7    1
    33     9    10    1
    34     9    11    1
@<TRIPOS>MOLECULE
*****
 32 34 0 0 0
SMALL
GASTEIGER

@<TRIPOS>ATOM
      1 C          61.6219   88.4249   11.8915 C.3     1  UNL1        0.2103
      2 C          62.9202   88.6475   12.6091 C.3     1  UNL1        0.1418
      3 N          63.1443   90.1270   12.7137 N.3     1  UNL1       -0.1492
      4 C          61.9845   90.8188   12.0607 C.3     1  UNL1        0.1277
      5 C          61.0436   89.7669   11.5526 C.3     1  UNL1        0.1566
      6 O          59.9334   88.9603   10.9472 O.3     1  UNL1       -0.3804
      7 H          59.2684   89.5573   10.5701 H       1  UNL1        0.2105
      8 C          60.2332   90.9402   11.0870 C.3     1  UNL1        0.0975
      9 N          58.8646   91.1781   11.6528 N.3     1  UNL1       -0.3191
     10 H          58.2437   90.4193   11.3713 H       1  UNL1        0.1189
     11 H          58.5005   92.0636   11.3010 H       1  UNL1        0.1189
     12 S          64.3215   90.7971   13.3580 S.O2    1  UNL1        0.0643
     13 O          64.6354   89.5318   14.1002 O.2     1  UNL1       -0.1527
     14 O          64.0077   92.0622   12.6159 O.2     1  UNL1       -0.1527
     15 C          65.4987   91.4671   14.0024 C.ar    1  UNL1        0.1327
     16 C          66.7528   91.7013   13.2136 C.ar    1  UNL1        0.0216
     17 C          67.9300   92.3713   13.8580 C.ar    1  UNL1        0.0128
     18 C          67.8531   92.8072   15.2911 C.ar    1  UNL1        0.0586
     19 CL         69.0303   93.4773   15.9355 Cl      1  UNL1       -0.0822
     20 C          66.5989   92.5731   16.0800 C.ar    1  UNL1        0.0241
     21 C          65.4217   91.9030   15.4356 C.ar    1  UNL1        0.0771
     22 CL         64.1676   91.6688   16.2244 Cl      1  UNL1       -0.0808
     23 O          61.0094   87.0941   11.5695 O.3     1  UNL1       -0.4751
     24 C          61.6432   85.2476    7.5150 C.ar    1  UNL1        0.0960
     25 C          60.4434   86.1120    7.7662 C.ar    1  UNL1        0.0157
     26 C          60.2321   86.7275    9.1177 C.ar    1  UNL1        0.0377
     27 C          61.2207   86.4786   10.2180 C.ar    1  UNL1        0.1408
     28 C          62.4205   85.6142    9.9668 C.ar    1  UNL1        0.0672
     29 C          62.6318   84.9987    8.6153 C.ar    1  UNL1        0.1527
     30 F          63.8317   84.1343    8.3642 F       1  UNL1       -0.2034
     31 N          62.0658   84.0165    4.8120 N.1     1  UNL1       -0.1908
     32 C          61.8545   84.6321    6.1635 C.1     1  UNL1        0.1027
@<TRIPOS>BOND
     1    31    32    3
     2    32    24    1
     3    24    25   ar
     4    25    26   ar
     5    26    27   ar
     6    27    23    1
     7     1    23    1
     8     1     2    1
     9     2     3    1
    10     3    12    1
    11    12    13    2
    12    12    14    2
    13    12    15    1
    14    15    16   ar
    15    16    17   ar
    16    17    18   ar
    17    18    19    1
    18    18    20   ar
    19    20    21   ar
    20    21    22    1
    21     3     4    1
    22     4     5    1
    23     5     6    1
    24     5     8    1
    25     8     9    1
    26    27    28   ar
    27    28    29   ar
    28    29    30    1
    29    29    24   ar
    30     5     1    1
    31    21    15   ar
    32     6     7    1
    33     9    10    1
    34     9    11    1
