@<TRIPOS>MOLECULE
*****
 39 44 0 0 0
SMALL
GASTEIGER

@<TRIPOS>ATOM
      1 N          62.9390   90.1668   12.0976 N.ar    1  UNL1       -0.2286
      2 N          63.6068   90.9169   10.9833 N.ar    1  UNL1       -0.1675
      3 C          64.6077   91.8548   11.5905 C.ar    1  UNL1        0.1066
      4 C          64.5585   91.6844   13.0800 C.ar    1  UNL1        0.0860
      5 C          65.3195   92.3444   14.1913 C.ar    1  UNL1        0.1316
      6 N          66.3508   93.3876   13.8779 N.pl3   1  UNL1       -0.3425
      7 N          65.0492   91.9611   15.6162 N.ar    1  UNL1       -0.2093
      8 C          64.0180   90.9179   15.9296 C.ar    1  UNL1        0.2014
      9 N          63.2570   90.2579   14.8182 N.ar    1  UNL1       -0.2050
     10 C          63.5272   90.6412   13.3934 C.ar    1  UNL1        0.1656
     11 H          66.5281   93.6391   12.9428 H       1  UNL1        0.1437
     12 H          66.8502   93.8208   14.6074 H       1  UNL1        0.1437
     13 C          65.5009   92.7976   10.8399 C.ar    1  UNL1        0.0220
     14 C          65.1022   94.2336   10.6705 C.ar    1  UNL1        0.0048
     15 C          65.9954   95.1764    9.9199 C.ar    1  UNL1        0.0393
     16 C          67.2872   94.6831    9.3388 C.ar    1  UNL1        0.1660
     17 C          67.6859   93.2470    9.5082 C.ar    1  UNL1        0.1739
     18 F          68.9778   92.7537    8.9270 F       1  UNL1       -0.2010
     19 C          66.7927   92.3043   10.2588 C.ar    1  UNL1        0.0343
     20 O          68.1805   95.6259    8.5882 O.3     1  UNL1       -0.4692
     21 C          67.6055   96.8553    7.9493 C.3     1  UNL1        0.2526
     22 C          61.8707   89.1253   11.9432 C.3     1  UNL1        0.1630
     23 C          62.2483   87.6929   11.7069 C.ar    1  UNL1        0.1450
     24 N          63.0045   86.9337   12.7565 N.ar    1  UNL1       -0.2301
     25 C          63.3821   85.5013   12.5203 C.ar    1  UNL1        0.0894
     26 C          64.1383   84.7421   13.5698 C.ar    1  UNL1        0.0194
     27 C          64.5159   83.3098   13.3336 C.ar    1  UNL1        0.0039
     28 C          64.1371   82.6366   12.0477 C.ar    1  UNL1        0.0299
     29 C          63.3809   83.3958   10.9981 C.ar    1  UNL1        0.1461
     30 F          63.0022   82.7227    9.7122 F       1  UNL1       -0.2040
     31 C          63.0034   84.8282   11.2344 C.ar    1  UNL1        0.1012
     32 C          62.2471   85.5874   10.1848 C.ar    1  UNL1        0.2653
     33 O          61.8683   84.9143    8.8989 O.2     1  UNL1       -0.2668
     34 N          61.8695   87.0197   10.4211 N.ar    1  UNL1       -0.2843
     35 C          61.1132   87.7790    9.3714 C.3     1  UNL1        0.0897
     36 C          60.0379   87.8304    8.3269 C.3     1  UNL1        0.0246
     37 C          60.8787   89.0426    8.5981 C.3     1  UNL1        0.0246
     38 C          59.9486   90.7722   11.3576 C.3     1  UNL1        0.0025
     39 C          60.4248   89.5161   12.0250 C.3     1  UNL1        0.0322
@<TRIPOS>BOND
     1    38    39    1
     2    22    39    1
     3    22    23    1
     4    23    24   ar
     5    24    25   ar
     6    25    26   ar
     7    26    27   ar
     8    27    28   ar
     9    28    29   ar
    10    29    30    1
    11    29    31   ar
    12    31    32   ar
    13    32    33    2
    14    32    34   ar
    15    34    35    1
    16    35    36    1
    17    36    37    1
    18    22     1    1
    19     1     2   ar
    20     2     3   ar
    21     3    13    1
    22    13    14   ar
    23    14    15   ar
    24    15    16   ar
    25    16    20    1
    26    20    21    1
    27    16    17   ar
    28    17    18    1
    29    17    19   ar
    30     3     4   ar
    31     4     5   ar
    32     5     6    1
    33     5     7   ar
    34     7     8   ar
    35     8     9   ar
    36     9    10   ar
    37    34    23   ar
    38    37    35    1
    39    10     1   ar
    40    31    25   ar
    41    19    13   ar
    42    10     4   ar
    43     6    11    1
    44     6    12    1
@<TRIPOS>MOLECULE
*****
 39 44 0 0 0
SMALL
GASTEIGER

@<TRIPOS>ATOM
      1 N          61.8604   88.4353   11.4998 N.ar    1  UNL1       -0.2286
      2 N          62.4560   87.1145   11.8884 N.ar    1  UNL1       -0.1675
      3 C          62.1921   86.1422   10.7771 C.ar    1  UNL1        0.1066
      4 C          61.4334   86.8619    9.7017 C.ar    1  UNL1        0.0860
      5 C          60.9028   86.4098    8.3736 C.ar    1  UNL1        0.1316
      6 N          61.1079   84.9926    7.9270 N.pl3   1  UNL1       -0.3425
      7 N          60.1671   87.3751    7.4920 N.ar    1  UNL1       -0.2093
      8 C          59.9621   88.7923    7.9387 C.ar    1  UNL1        0.2014
      9 N          60.4927   89.2443    9.2669 N.ar    1  UNL1       -0.2050
     10 C          61.2284   88.2791   10.1484 C.ar    1  UNL1        0.1656
     11 H          61.5907   84.3591    8.5056 H       1  UNL1        0.1437
     12 H          60.7596   84.6960    7.0552 H       1  UNL1        0.1437
     13 C          62.6131   84.7028   10.7466 C.ar    1  UNL1        0.0220
     14 C          63.5571   84.2198    9.6857 C.ar    1  UNL1        0.0048
     15 C          63.9781   82.7804    9.6552 C.ar    1  UNL1        0.0393
     16 C          63.4550   81.8240   10.6856 C.ar    1  UNL1        0.1660
     17 C          62.5109   82.3069   11.7465 C.ar    1  UNL1        0.1739
     18 F          61.9878   81.3505   12.7769 F       1  UNL1       -0.2010
     19 C          62.0900   83.7463   11.7770 C.ar    1  UNL1        0.0343
     20 O          63.8760   80.3845   10.6551 O.3     1  UNL1       -0.4692
     21 C          63.0709   79.3839    9.8801 C.3     1  UNL1        0.2526
     22 C          61.8913   89.6916   12.3188 C.3     1  UNL1        0.1630
     23 C          63.1379   90.5245   12.3676 C.ar    1  UNL1        0.1450
     24 N          63.4866   91.4208   11.2166 N.ar    1  UNL1       -0.2301
     25 C          64.7332   92.2538   11.2655 C.ar    1  UNL1        0.0894
     26 C          65.0819   93.1501   10.1144 C.ar    1  UNL1        0.0194
     27 C          66.3284   93.9830   10.1633 C.ar    1  UNL1        0.0039
     28 C          67.2262   93.9195   11.3633 C.ar    1  UNL1        0.0299
     29 C          66.8775   93.0232   12.5143 C.ar    1  UNL1        0.1461
     30 F          67.7753   92.9598   13.7143 F       1  UNL1       -0.2040
     31 C          65.6310   92.1903   12.4654 C.ar    1  UNL1        0.1012
     32 C          65.2822   91.2940   13.6165 C.ar    1  UNL1        0.2653
     33 O          66.1800   91.2305   14.8165 O.2     1  UNL1       -0.2668
     34 N          64.0357   90.4611   13.5676 N.ar    1  UNL1       -0.2843
     35 C          63.6869   89.5647   14.7187 C.3     1  UNL1        0.0897
     36 C          63.0633   89.3668   16.0685 C.3     1  UNL1        0.0246
     37 C          63.7065   88.2101   15.3626 C.3     1  UNL1        0.0246
     38 C          59.3090   89.7357   12.6008 C.3     1  UNL1        0.0025
     39 C          60.6757   90.1149   13.0889 C.3     1  UNL1        0.0322
@<TRIPOS>BOND
     1    38    39    1
     2    22    39    1
     3    22    23    1
     4    23    24   ar
     5    24    25   ar
     6    25    26   ar
     7    26    27   ar
     8    27    28   ar
     9    28    29   ar
    10    29    30    1
    11    29    31   ar
    12    31    32   ar
    13    32    33    2
    14    32    34   ar
    15    34    35    1
    16    35    36    1
    17    36    37    1
    18    22     1    1
    19     1     2   ar
    20     2     3   ar
    21     3    13    1
    22    13    14   ar
    23    14    15   ar
    24    15    16   ar
    25    16    20    1
    26    20    21    1
    27    16    17   ar
    28    17    18    1
    29    17    19   ar
    30     3     4   ar
    31     4     5   ar
    32     5     6    1
    33     5     7   ar
    34     7     8   ar
    35     8     9   ar
    36     9    10   ar
    37    34    23   ar
    38    37    35    1
    39    10     1   ar
    40    31    25   ar
    41    19    13   ar
    42    10     4   ar
    43     6    11    1
    44     6    12    1
@<TRIPOS>MOLECULE
*****
 39 44 0 0 0
SMALL
GASTEIGER

@<TRIPOS>ATOM
      1 N          63.0916   90.3047   12.3789 N.ar    1  UNL1       -0.2286
      2 N          63.7339   91.0109   11.2218 N.ar    1  UNL1       -0.1675
      3 C          64.7420   91.9770   11.7702 C.ar    1  UNL1        0.1066
      4 C          64.7226   91.8678   13.2661 C.ar    1  UNL1        0.0860
      5 C          65.5020   92.5760   14.3342 C.ar    1  UNL1        0.1316
      6 N          66.5220   93.6095   13.9580 N.pl3   1  UNL1       -0.3425
      7 N          65.2614   92.2506   15.7787 N.ar    1  UNL1       -0.2093
      8 C          64.2415   91.2170   16.1548 C.ar    1  UNL1        0.2014
      9 N          63.4621   90.5089   15.0866 N.ar    1  UNL1       -0.2050
     10 C          63.7027   90.8343   13.6422 C.ar    1  UNL1        0.1656
     11 H          66.6799   93.8231   13.0100 H       1  UNL1        0.1437
     12 H          67.0335   94.0743   14.6591 H       1  UNL1        0.1437
     13 C          65.6158   92.8916   10.9641 C.ar    1  UNL1        0.0220
     14 C          65.2498   94.3385   10.8135 C.ar    1  UNL1        0.0048
     15 C          66.1237   95.2531   10.0074 C.ar    1  UNL1        0.0393
     16 C          67.3636   94.7209    9.3520 C.ar    1  UNL1        0.1660
     17 C          67.7296   93.2741    9.5026 C.ar    1  UNL1        0.1739
     18 F          68.9694   92.7419    8.8472 F       1  UNL1       -0.2010
     19 C          66.8557   92.3595   10.3087 C.ar    1  UNL1        0.0343
     20 O          68.2375   95.6357    8.5458 O.3     1  UNL1       -0.4692
     21 C          67.6505   96.8533    7.8956 C.3     1  UNL1        0.2526
     22 C          62.0255   89.2534   12.2884 C.3     1  UNL1        0.1630
     23 C          62.2818   87.9892   11.5227 C.ar    1  UNL1        0.1450
     24 N          61.7875   87.8529   10.1130 N.ar    1  UNL1       -0.2301
     25 C          62.0438   86.5888    9.3473 C.ar    1  UNL1        0.0894
     26 C          61.5496   86.4524    7.9377 C.ar    1  UNL1        0.0194
     27 C          61.8059   85.1883    7.1720 C.ar    1  UNL1        0.0039
     28 C          62.5565   84.0605    7.8160 C.ar    1  UNL1        0.0299
     29 C          63.0507   84.1968    9.2257 C.ar    1  UNL1        0.1461
     30 F          63.8013   83.0690    9.8697 F       1  UNL1       -0.2040
     31 C          62.7944   85.4609    9.9913 C.ar    1  UNL1        0.1012
     32 C          63.2886   85.5973   11.4010 C.ar    1  UNL1        0.2653
     33 O          64.0392   84.4695   12.0450 O.2     1  UNL1       -0.2668
     34 N          63.0323   86.8614   12.1666 N.ar    1  UNL1       -0.2843
     35 C          63.5266   86.9978   13.5764 C.3     1  UNL1        0.0897
     36 C          63.2763   86.9244   15.0535 C.3     1  UNL1        0.0246
     37 C          64.6329   87.3074   14.5408 C.3     1  UNL1        0.0246
     38 C          59.4754   89.7283   12.1425 C.3     1  UNL1        0.0025
     39 C          60.7031   89.4663   12.9635 C.3     1  UNL1        0.0322
@<TRIPOS>BOND
     1    38    39    1
     2    22    39    1
     3    22    23    1
     4    23    24   ar
     5    24    25   ar
     6    25    26   ar
     7    26    27   ar
     8    27    28   ar
     9    28    29   ar
    10    29    30    1
    11    29    31   ar
    12    31    32   ar
    13    32    33    2
    14    32    34   ar
    15    34    35    1
    16    35    36    1
    17    36    37    1
    18    22     1    1
    19     1     2   ar
    20     2     3   ar
    21     3    13    1
    22    13    14   ar
    23    14    15   ar
    24    15    16   ar
    25    16    20    1
    26    20    21    1
    27    16    17   ar
    28    17    18    1
    29    17    19   ar
    30     3     4   ar
    31     4     5   ar
    32     5     6    1
    33     5     7   ar
    34     7     8   ar
    35     8     9   ar
    36     9    10   ar
    37    34    23   ar
    38    37    35    1
    39    10     1   ar
    40    31    25   ar
    41    19    13   ar
    42    10     4   ar
    43     6    11    1
    44     6    12    1
