@<TRIPOS>MOLECULE
*****
 45 49 0 0 0
SMALL
GASTEIGER

@<TRIPOS>ATOM
      1 C          64.0610   89.1304   14.1167 C.3     1  UNL1        0.1916
      2 C          63.7686   88.0715   15.1380 C.ar    1  UNL1        0.0203
      3 C          63.1459   88.4466   16.4501 C.ar    1  UNL1       -0.0006
      4 C          62.8534   87.3877   17.4714 C.ar    1  UNL1        0.0029
      5 C          63.1836   85.9536   17.1807 C.ar    1  UNL1        0.0369
      6 C          63.8062   85.5785   15.8686 C.ar    1  UNL1        0.1389
      7 C          64.0987   86.6375   14.8472 C.ar    1  UNL1        0.0361
      8 O          64.1364   84.1445   15.5778 O.3     1  UNL1       -0.4694
      9 C          64.3422   83.6945   14.1617 C.3     1  UNL1        0.2469
     10 C          63.5323   82.5587   13.6105 C.2     1  UNL1        0.0940
     11 O          63.6914   81.1793   14.1779 O.co2   1  UNL1       -0.5454
     12 O          62.5632   82.8023   12.4918 O.co2   1  UNL1       -0.5454
     13 C          63.1739   89.2802   12.9165 C.3     1  UNL1        0.0530
     14 C          63.0116   88.1391   11.9566 C.3     1  UNL1        0.0305
     15 C          60.0894   88.4626    8.5499 C.ar    1  UNL1        0.1724
     16 C          60.4409   89.6787    9.3545 C.ar    1  UNL1        0.0397
     17 C          61.4150   89.5708   10.4901 C.ar    1  UNL1       -0.0009
     18 C          62.0375   88.2469   10.8211 C.ar    1  UNL1       -0.0188
     19 C          61.6860   87.0308   10.0164 C.ar    1  UNL1        0.0358
     20 C          60.7119   87.1387    8.8808 C.ar    1  UNL1        0.1721
     21 C          59.2587   89.6708    6.4051 C.3     1  UNL1        0.2526
     22 O          59.1153   88.5704    7.4143 O.3     1  UNL1       -0.4684
     23 O          60.3604   85.9225    8.0762 O.3     1  UNL1       -0.4684
     24 C          61.4026   85.2591    7.2254 C.3     1  UNL1        0.2526
     25 O          65.2407   90.0395   14.2956 O.3     1  UNL1       -0.4465
     26 C          65.0849   91.3327   15.0395 C.2     1  UNL1        0.3354
     27 O          63.7472   91.7215   15.5958 O.2     1  UNL1       -0.2483
     28 C          66.2668   92.2370   15.2272 C.3     1  UNL1        0.1746
     29 C          67.0567   92.1843   16.5014 C.3     1  UNL1        0.0314
     30 C          68.2386   93.0886   16.6891 C.3     1  UNL1        0.0040
     31 C          68.6307   94.0457   15.6028 C.3     1  UNL1        0.0216
     32 C          67.8409   94.0984   14.3286 C.3     1  UNL1        0.0939
     33 N          66.6590   93.1941   14.1408 N.am    1  UNL1       -0.2714
     34 C          65.8692   93.2468   12.8667 C.2     1  UNL1        0.2255
     35 O          64.6872   92.3425   12.6789 O.2     1  UNL1       -0.2749
     36 C          66.2613   94.2039   11.7803 C.3     1  UNL1        0.0767
     37 C          65.8575   95.6458   11.8693 C.3     1  UNL1        0.0091
     38 C          66.2497   96.6028   10.7829 C.3     1  UNL1        0.0005
     39 C          67.0456   96.1180    9.6075 C.3     1  UNL1        0.0000
     40 C          67.4494   94.6761    9.5186 C.3     1  UNL1        0.0005
     41 C          68.2453   94.1913    8.3432 C.3     1  UNL1        0.0000
     42 C          68.6491   92.7495    8.2543 C.3     1  UNL1        0.0000
     43 C          68.2570   91.7924    9.3407 C.3     1  UNL1        0.0000
     44 C          67.4611   92.2772   10.5160 C.3     1  UNL1        0.0005
     45 C          67.0573   93.7191   10.6050 C.3     1  UNL1        0.0086
@<TRIPOS>UNITY_ATOM_ATTR
11 1
charge -1
@<TRIPOS>BOND
     1    21    22    1
     2    22    15    1
     3    15    16   ar
     4    16    17   ar
     5    17    18   ar
     6    18    14    1
     7    14    13    1
     8     1    13    1
     9     1    25    1
    10    25    26    1
    11    26    27    2
    12    28    26    1
    13    28    29    1
    14    29    30    1
    15    30    31    1
    16    31    32    1
    17    32    33    1
    18    33    34   am
    19    34    35    2
    20    36    34    1
    21    36    37    1
    22    37    38    1
    23    38    39    1
    24    40    39    1
    25    40    41    1
    26    41    42    1
    27    42    43    1
    28    43    44    1
    29    45    44    1
    30     1     2    1
    31     2     3   ar
    32     3     4   ar
    33     4     5   ar
    34     5     6   ar
    35     6     8    1
    36     8     9    1
    37     9    10    1
    38    10    11   ar
    39    10    12   ar
    40     6     7   ar
    41    18    19   ar
    42    19    20   ar
    43    20    23    1
    44    23    24    1
    45    20    15   ar
    46    33    28    1
    47    45    36    1
    48     7     2   ar
    49    45    40    1
@<TRIPOS>MOLECULE
*****
 45 49 0 0 0
SMALL
GASTEIGER

@<TRIPOS>ATOM
      1 C          63.9546   88.9291   13.8125 C.3     1  UNL1        0.1916
      2 C          62.9844   88.8617   12.6705 C.ar    1  UNL1        0.0203
      3 C          62.2143   90.0842   12.2675 C.ar    1  UNL1       -0.0006
      4 C          61.2441   90.0169   11.1255 C.ar    1  UNL1        0.0029
      5 C          61.0441   88.7270   10.3864 C.ar    1  UNL1        0.0369
      6 C          61.8143   87.5045   10.7893 C.ar    1  UNL1        0.1389
      7 C          62.7845   87.5719   11.9314 C.ar    1  UNL1        0.0361
      8 O          61.6144   86.2147   10.0502 O.3     1  UNL1       -0.4694
      9 C          61.6447   86.1971    8.5505 C.3     1  UNL1        0.2469
     10 C          60.3804   85.9655    7.7775 C.2     1  UNL1        0.0940
     11 O          60.3363   84.9132    6.7094 O.co2   1  UNL1       -0.5454
     12 O          59.1600   86.7863    8.0724 O.co2   1  UNL1       -0.5454
     13 C          63.8782   87.9223   14.9218 C.3     1  UNL1        0.0530
     14 C          64.7874   86.7293   14.9158 C.3     1  UNL1        0.0305
     15 C          63.0824   82.6038   14.3474 C.ar    1  UNL1        0.1724
     16 C          62.5931   83.4693   15.4704 C.ar    1  UNL1        0.0397
     17 C          63.1614   84.8445   15.6599 C.ar    1  UNL1       -0.0009
     18 C          64.2191   85.3541   14.7264 C.ar    1  UNL1       -0.0188
     19 C          64.7084   84.4886   13.6033 C.ar    1  UNL1        0.0358
     20 C          64.1401   83.1134   13.4138 C.ar    1  UNL1        0.1721
     21 C          61.0280   81.0252   14.1539 C.3     1  UNL1        0.2526
     22 O          62.5141   81.2286   14.1579 O.3     1  UNL1       -0.4684
     23 O          64.6295   82.2478   12.2907 O.3     1  UNL1       -0.4684
     24 C          64.3947   82.6612   10.8681 C.3     1  UNL1        0.2526
     25 O          65.0011   90.0032   13.8453 O.3     1  UNL1       -0.4465
     26 C          64.8317   91.1880   14.7494 C.2     1  UNL1        0.3354
     27 O          63.4951   91.4754   15.3667 O.2     1  UNL1       -0.2483
     28 C          65.9988   92.0854   15.0364 C.3     1  UNL1        0.1746
     29 C          66.7043   91.9993   16.3574 C.3     1  UNL1        0.0314
     30 C          67.8714   92.8967   16.6443 C.3     1  UNL1        0.0040
     31 C          68.3332   93.8803   15.6103 C.3     1  UNL1        0.0216
     32 C          67.6278   93.9665   14.2893 C.3     1  UNL1        0.0939
     33 N          66.4606   93.0691   14.0023 N.am    1  UNL1       -0.2714
     34 C          65.7553   93.1553   12.6814 C.2     1  UNL1        0.2255
     35 O          64.5881   92.2578   12.3944 O.2     1  UNL1       -0.2749
     36 C          66.2171   94.1389   11.6473 C.3     1  UNL1        0.0767
     37 C          65.8480   95.5873   11.7723 C.3     1  UNL1        0.0091
     38 C          66.3098   96.5710   10.7383 C.3     1  UNL1        0.0005
     39 C          67.1407   96.1061    9.5792 C.3     1  UNL1        0.0000
     40 C          67.5098   94.6576    9.4542 C.3     1  UNL1        0.0005
     41 C          68.3407   94.1928    8.2951 C.3     1  UNL1        0.0000
     42 C          68.7099   92.7443    8.1701 C.3     1  UNL1        0.0000
     43 C          68.2481   91.7607    9.2041 C.3     1  UNL1        0.0000
     44 C          67.4172   92.2255   10.3632 C.3     1  UNL1        0.0005
     45 C          67.0480   93.6740   10.4882 C.3     1  UNL1        0.0086
@<TRIPOS>UNITY_ATOM_ATTR
11 1
charge -1
@<TRIPOS>BOND
     1    21    22    1
     2    22    15    1
     3    15    16   ar
     4    16    17   ar
     5    17    18   ar
     6    18    14    1
     7    14    13    1
     8     1    13    1
     9     1    25    1
    10    25    26    1
    11    26    27    2
    12    28    26    1
    13    28    29    1
    14    29    30    1
    15    30    31    1
    16    31    32    1
    17    32    33    1
    18    33    34   am
    19    34    35    2
    20    36    34    1
    21    36    37    1
    22    37    38    1
    23    38    39    1
    24    40    39    1
    25    40    41    1
    26    41    42    1
    27    42    43    1
    28    43    44    1
    29    45    44    1
    30     1     2    1
    31     2     3   ar
    32     3     4   ar
    33     4     5   ar
    34     5     6   ar
    35     6     8    1
    36     8     9    1
    37     9    10    1
    38    10    11   ar
    39    10    12   ar
    40     6     7   ar
    41    18    19   ar
    42    19    20   ar
    43    20    23    1
    44    23    24    1
    45    20    15   ar
    46    33    28    1
    47    45    36    1
    48     7     2   ar
    49    45    40    1
@<TRIPOS>MOLECULE
*****
 45 49 0 0 0
SMALL
GASTEIGER

@<TRIPOS>ATOM
      1 C          63.8397   89.3350   14.6115 C.3     1  UNL1        0.1916
      2 C          63.6019   88.1681   15.5235 C.ar    1  UNL1        0.0203
      3 C          63.0351   88.3909   16.8943 C.ar    1  UNL1       -0.0006
      4 C          62.7973   87.2240   17.8063 C.ar    1  UNL1        0.0029
      5 C          63.1263   85.8342   17.3475 C.ar    1  UNL1        0.0369
      6 C          63.6931   85.6115   15.9766 C.ar    1  UNL1        0.1389
      7 C          63.9309   86.7785   15.0646 C.ar    1  UNL1        0.0361
      8 O          64.0221   84.2218   15.5178 O.3     1  UNL1       -0.4694
      9 C          62.9408   83.3360   14.9735 C.3     1  UNL1        0.2469
     10 C          63.3005   82.0923   14.2161 C.2     1  UNL1        0.0940
     11 O          64.4164   82.1207   13.2141 O.co2   1  UNL1       -0.5454
     12 O          62.5443   80.8202   14.4606 O.co2   1  UNL1       -0.5454
     13 C          62.7060   89.9049   13.8115 C.3     1  UNL1        0.0530
     14 C          62.8425   90.0660   12.3265 C.3     1  UNL1        0.0305
     15 C          60.5956   87.3285    9.5503 C.ar    1  UNL1        0.1724
     16 C          60.3424   88.8065    9.5135 C.ar    1  UNL1        0.0397
     17 C          61.0914   89.7190   10.4389 C.ar    1  UNL1       -0.0009
     18 C          62.0936   89.1535   11.4011 C.ar    1  UNL1       -0.0188
     19 C          62.3467   87.6755   11.4379 C.ar    1  UNL1        0.0358
     20 C          61.5977   86.7630   10.5125 C.ar    1  UNL1        0.1721
     21 C          58.9337   86.9899    7.5822 C.3     1  UNL1        0.2526
     22 O          59.8466   86.4160    8.6249 O.3     1  UNL1       -0.4684
     23 O          61.8509   85.2849   10.5493 O.3     1  UNL1       -0.4684
     24 C          62.7030   84.6968   11.6347 C.3     1  UNL1        0.2526
     25 O          65.2112   89.9321   14.4995 O.3     1  UNL1       -0.4465
     26 C          65.4873   91.2899   15.0739 C.2     1  UNL1        0.3354
     27 O          64.3731   92.0858   15.6865 O.2     1  UNL1       -0.2483
     28 C          66.8775   91.8519   15.0359 C.3     1  UNL1        0.1746
     29 C          67.6857   91.9400   16.2966 C.3     1  UNL1        0.0314
     30 C          69.0759   92.5019   16.2585 C.3     1  UNL1        0.0040
     31 C          69.6580   92.9758   14.9598 C.3     1  UNL1        0.0216
     32 C          68.8499   92.8877   13.6992 C.3     1  UNL1        0.0939
     33 N          67.4597   92.3257   13.7372 N.am    1  UNL1       -0.2714
     34 C          66.6516   92.2377   12.4766 C.2     1  UNL1        0.2255
     35 O          65.2613   91.6757   12.5146 O.2     1  UNL1       -0.2749
     36 C          67.2337   92.7115   11.1779 C.3     1  UNL1        0.0767
     37 C          68.1235   91.8053   10.3798 C.3     1  UNL1        0.0091
     38 C          68.7056   92.2791    9.0811 C.3     1  UNL1        0.0005
     39 C          68.3980   93.6592    8.5805 C.3     1  UNL1        0.0000
     40 C          67.5082   94.5656    9.3787 C.3     1  UNL1        0.0005
     41 C          67.2007   95.9457    8.8781 C.3     1  UNL1        0.0000
     42 C          66.3109   96.8520    9.6762 C.3     1  UNL1        0.0000
     43 C          65.7288   96.3781   10.9749 C.3     1  UNL1        0.0000
     44 C          66.0364   94.9980   11.4755 C.3     1  UNL1        0.0005
     45 C          66.9261   94.0917   10.6773 C.3     1  UNL1        0.0086
@<TRIPOS>UNITY_ATOM_ATTR
11 1
charge -1
@<TRIPOS>BOND
     1    21    22    1
     2    22    15    1
     3    15    16   ar
     4    16    17   ar
     5    17    18   ar
     6    18    14    1
     7    14    13    1
     8     1    13    1
     9     1    25    1
    10    25    26    1
    11    26    27    2
    12    28    26    1
    13    28    29    1
    14    29    30    1
    15    30    31    1
    16    31    32    1
    17    32    33    1
    18    33    34   am
    19    34    35    2
    20    36    34    1
    21    36    37    1
    22    37    38    1
    23    38    39    1
    24    40    39    1
    25    40    41    1
    26    41    42    1
    27    42    43    1
    28    43    44    1
    29    45    44    1
    30     1     2    1
    31     2     3   ar
    32     3     4   ar
    33     4     5   ar
    34     5     6   ar
    35     6     8    1
    36     8     9    1
    37     9    10    1
    38    10    11   ar
    39    10    12   ar
    40     6     7   ar
    41    18    19   ar
    42    19    20   ar
    43    20    23    1
    44    23    24    1
    45    20    15   ar
    46    33    28    1
    47    45    36    1
    48     7     2   ar
    49    45    40    1
@<TRIPOS>MOLECULE
*****
 45 49 0 0 0
SMALL
GASTEIGER

@<TRIPOS>ATOM
      1 C          63.9065   89.3552   14.4334 C.3     1  UNL1        0.1916
      2 C          63.7022   88.1625   15.3198 C.ar    1  UNL1        0.0203
      3 C          63.0307   88.3239   16.6514 C.ar    1  UNL1       -0.0006
      4 C          62.8264   87.1313   17.5378 C.ar    1  UNL1        0.0029
      5 C          63.2937   85.7771   17.0927 C.ar    1  UNL1        0.0369
      6 C          63.9653   85.6157   15.7612 C.ar    1  UNL1        0.1389
      7 C          64.1695   86.8085   14.8747 C.ar    1  UNL1        0.0361
      8 O          64.4325   84.2617   15.3161 O.3     1  UNL1       -0.4694
      9 C          64.2890   83.8534   13.8798 C.3     1  UNL1        0.2469
     10 C          63.3440   82.7507   13.5044 C.2     1  UNL1        0.0940
     11 O          62.5449   82.8463   12.2385 O.co2   1  UNL1       -0.5454
     12 O          63.1981   81.5525   14.3948 O.co2   1  UNL1       -0.5454
     13 C          62.8346   89.7637   13.4669 C.3     1  UNL1        0.0530
     14 C          63.1007   89.7242   11.9912 C.3     1  UNL1        0.0305
     15 C          60.5637   87.1442    9.3158 C.ar    1  UNL1        0.1724
     16 C          61.5552   86.5119   10.2470 C.ar    1  UNL1        0.0397
     17 C          62.4008   87.3718   11.1388 C.ar    1  UNL1       -0.0009
     18 C          62.2550   88.8642   11.0994 C.ar    1  UNL1       -0.0188
     19 C          61.2636   89.4965   10.1682 C.ar    1  UNL1        0.0358
     20 C          60.4180   88.6366    9.2764 C.ar    1  UNL1        0.1721
     21 C          60.3458   85.5466    7.2786 C.3     1  UNL1        0.2526
     22 O          59.7181   86.2842    8.4240 O.3     1  UNL1       -0.4684
     23 O          59.4265   89.2690    8.3452 O.3     1  UNL1       -0.4684
     24 C          59.6870   89.2813    6.8681 C.3     1  UNL1        0.2526
     25 O          65.1827   90.1395   14.5135 O.3     1  UNL1       -0.4465
     26 C          65.2251   91.4264   15.2830 C.2     1  UNL1        0.3354
     27 O          63.9919   91.9279   15.9742 O.2     1  UNL1       -0.2483
     28 C          66.5006   92.2118   15.3612 C.3     1  UNL1        0.1746
     29 C          67.4015   92.0625   16.5512 C.3     1  UNL1        0.0314
     30 C          68.6771   92.8478   16.6295 C.3     1  UNL1        0.0040
     31 C          69.0517   93.7826   15.5178 C.3     1  UNL1        0.0216
     32 C          68.1509   93.9319   14.3278 C.3     1  UNL1        0.0939
     33 N          66.8753   93.1465   14.2495 N.am    1  UNL1       -0.2714
     34 C          65.9744   93.2958   13.0595 C.2     1  UNL1        0.2255
     35 O          64.6988   92.5104   12.9812 O.2     1  UNL1       -0.2749
     36 C          66.3491   94.2305   11.9478 C.3     1  UNL1        0.0767
     37 C          65.9770   95.6813   12.0302 C.3     1  UNL1        0.0091
     38 C          66.3517   96.6160   10.9185 C.3     1  UNL1        0.0005
     39 C          67.0984   96.0999    9.7243 C.3     1  UNL1        0.0000
     40 C          67.4704   94.6491    9.6418 C.3     1  UNL1        0.0005
     41 C          68.2171   94.1330    8.4476 C.3     1  UNL1        0.0000
     42 C          68.5891   92.6823    8.3652 C.3     1  UNL1        0.0000
     43 C          68.2145   91.7476    9.4769 C.3     1  UNL1        0.0000
     44 C          67.4678   92.2636   10.6711 C.3     1  UNL1        0.0005
     45 C          67.0958   93.7144   10.7535 C.3     1  UNL1        0.0086
@<TRIPOS>UNITY_ATOM_ATTR
11 1
charge -1
@<TRIPOS>BOND
     1    21    22    1
     2    22    15    1
     3    15    16   ar
     4    16    17   ar
     5    17    18   ar
     6    18    14    1
     7    14    13    1
     8     1    13    1
     9     1    25    1
    10    25    26    1
    11    26    27    2
    12    28    26    1
    13    28    29    1
    14    29    30    1
    15    30    31    1
    16    31    32    1
    17    32    33    1
    18    33    34   am
    19    34    35    2
    20    36    34    1
    21    36    37    1
    22    37    38    1
    23    38    39    1
    24    40    39    1
    25    40    41    1
    26    41    42    1
    27    42    43    1
    28    43    44    1
    29    45    44    1
    30     1     2    1
    31     2     3   ar
    32     3     4   ar
    33     4     5   ar
    34     5     6   ar
    35     6     8    1
    36     8     9    1
    37     9    10    1
    38    10    11   ar
    39    10    12   ar
    40     6     7   ar
    41    18    19   ar
    42    19    20   ar
    43    20    23    1
    44    23    24    1
    45    20    15   ar
    46    33    28    1
    47    45    36    1
    48     7     2   ar
    49    45    40    1
@<TRIPOS>MOLECULE
*****
 45 49 0 0 0
SMALL
GASTEIGER

@<TRIPOS>ATOM
      1 C          63.5410   90.3566   12.5827 C.3     1  UNL1        0.1916
      2 C          63.5678   89.7737   13.9645 C.ar    1  UNL1        0.0203
      3 C          63.2112   90.6270   15.1455 C.ar    1  UNL1       -0.0006
      4 C          63.2379   90.0441   16.5273 C.ar    1  UNL1        0.0029
      5 C          63.6213   88.6078   16.7282 C.ar    1  UNL1        0.0369
      6 C          63.9779   87.7545   15.5473 C.ar    1  UNL1        0.1389
      7 C          63.9512   88.3375   14.1654 C.ar    1  UNL1        0.0361
      8 O          64.3613   86.3184   15.7481 O.3     1  UNL1       -0.4694
      9 C          63.5613   85.4510   16.6743 C.3     1  UNL1        0.2469
     10 C          62.3892   86.0247   17.4138 C.2     1  UNL1        0.0940
     11 O          62.5759   86.5950   18.7886 O.co2   1  UNL1       -0.5454
     12 O          61.0304   86.0281   16.7787 O.co2   1  UNL1       -0.5454
     13 C          64.0078   91.7635   12.3530 C.3     1  UNL1        0.0530
     14 C          65.4656   92.0979   12.4663 C.3     1  UNL1        0.0305
     15 C          67.3459   94.9766    9.5632 C.ar    1  UNL1        0.1724
     16 C          66.5629   95.4951   10.7328 C.ar    1  UNL1        0.0397
     17 C          65.9361   94.5356   11.7005 C.ar    1  UNL1       -0.0009
     18 C          66.0924   93.0575   11.4986 C.ar    1  UNL1       -0.0188
     19 C          66.8754   92.5390   10.3290 C.ar    1  UNL1        0.0358
     20 C          67.5021   93.4985    9.3613 C.ar    1  UNL1        0.1721
     21 C          67.1082   96.8556    7.7848 C.3     1  UNL1        0.2526
     22 O          67.9727   95.9362    8.5955 O.3     1  UNL1       -0.4684
     23 O          68.2852   92.9799    8.1917 O.3     1  UNL1       -0.4684
     24 C          69.3975   91.9976    8.4101 C.3     1  UNL1        0.2526
     25 O          63.0475   89.5325   11.4305 O.3     1  UNL1       -0.4465
     26 C          61.6265   89.0528   11.4059 C.2     1  UNL1        0.3354
     27 O          60.7034   89.3838   12.5410 O.2     1  UNL1       -0.2483
     28 C          61.1285   88.2422   10.2463 C.3     1  UNL1        0.1746
     29 C          60.2118   88.8642    9.2349 C.3     1  UNL1        0.0314
     30 C          59.7139   88.0535    8.0752 C.3     1  UNL1        0.0040
     31 C          60.1326   86.6208    7.9269 C.3     1  UNL1        0.0216
     32 C          61.0493   85.9988    8.9382 C.3     1  UNL1        0.0939
     33 N          61.5473   86.8094   10.0979 N.am    1  UNL1       -0.2714
     34 C          62.4639   86.1874   11.1092 C.2     1  UNL1        0.2255
     35 O          62.9619   86.9981   12.2689 O.2     1  UNL1       -0.2749
     36 C          62.8826   84.7547   10.9609 C.3     1  UNL1        0.0767
     37 C          63.4722   84.2757    9.6675 C.3     1  UNL1        0.0091
     38 C          63.8909   82.8430    9.5191 C.3     1  UNL1        0.0005
     39 C          63.7200   81.8893   10.6642 C.3     1  UNL1        0.0000
     40 C          63.1304   82.3682   11.9577 C.3     1  UNL1        0.0005
     41 C          62.9595   81.4145   13.1027 C.3     1  UNL1        0.0000
     42 C          62.3699   81.8935   14.3961 C.3     1  UNL1        0.0000
     43 C          61.9512   83.3262   14.5444 C.3     1  UNL1        0.0000
     44 C          62.1221   84.2799   13.3994 C.3     1  UNL1        0.0005
     45 C          62.7117   83.8009   12.1060 C.3     1  UNL1        0.0086
@<TRIPOS>UNITY_ATOM_ATTR
11 1
charge -1
@<TRIPOS>BOND
     1    21    22    1
     2    22    15    1
     3    15    16   ar
     4    16    17   ar
     5    17    18   ar
     6    18    14    1
     7    14    13    1
     8     1    13    1
     9     1    25    1
    10    25    26    1
    11    26    27    2
    12    28    26    1
    13    28    29    1
    14    29    30    1
    15    30    31    1
    16    31    32    1
    17    32    33    1
    18    33    34   am
    19    34    35    2
    20    36    34    1
    21    36    37    1
    22    37    38    1
    23    38    39    1
    24    40    39    1
    25    40    41    1
    26    41    42    1
    27    42    43    1
    28    43    44    1
    29    45    44    1
    30     1     2    1
    31     2     3   ar
    32     3     4   ar
    33     4     5   ar
    34     5     6   ar
    35     6     8    1
    36     8     9    1
    37     9    10    1
    38    10    11   ar
    39    10    12   ar
    40     6     7   ar
    41    18    19   ar
    42    19    20   ar
    43    20    23    1
    44    23    24    1
    45    20    15   ar
    46    33    28    1
    47    45    36    1
    48     7     2   ar
    49    45    40    1
@<TRIPOS>MOLECULE
*****
 45 49 0 0 0
SMALL
GASTEIGER

@<TRIPOS>ATOM
      1 C          63.5908   88.5245   13.5590 C.3     1  UNL1        0.1916
      2 C          62.9585   87.9833   12.3112 C.ar    1  UNL1        0.0203
      3 C          62.9020   86.5022   12.0806 C.ar    1  UNL1       -0.0006
      4 C          62.2698   85.9610   10.8327 C.ar    1  UNL1        0.0029
      5 C          61.6939   86.9009    9.8153 C.ar    1  UNL1        0.0369
      6 C          61.7504   88.3820   10.0458 C.ar    1  UNL1        0.1389
      7 C          62.3827   88.9232   11.2938 C.ar    1  UNL1        0.0361
      8 O          61.1746   89.3219    9.0285 O.3     1  UNL1       -0.4694
      9 C          59.7091   89.2781    8.7116 C.3     1  UNL1        0.2469
     10 C          59.2325   88.6061    7.4581 C.2     1  UNL1        0.0940
     11 O          59.2238   89.3586    6.1606 O.co2   1  UNL1       -0.5454
     12 O          58.7647   87.1817    7.5022 O.co2   1  UNL1       -0.5454
     13 C          64.6799   87.7528   14.2434 C.3     1  UNL1        0.0530
     14 C          64.3500   86.8523   15.3968 C.3     1  UNL1        0.0305
     15 C          63.0144   82.6225   14.6387 C.ar    1  UNL1        0.1724
     16 C          62.3896   83.4194   15.7454 C.ar    1  UNL1        0.0397
     17 C          62.8349   84.8293   15.9981 C.ar    1  UNL1       -0.0009
     18 C          63.9048   85.4424   15.1441 C.ar    1  UNL1       -0.0188
     19 C          64.5295   84.6456   14.0375 C.ar    1  UNL1        0.0358
     20 C          64.0843   83.2356   13.7848 C.ar    1  UNL1        0.1721
     21 C          61.1519   80.9348   13.9806 C.3     1  UNL1        0.2526
     22 O          62.5691   81.2126   14.3860 O.3     1  UNL1       -0.4684
     23 O          64.7091   82.4388   12.6780 O.3     1  UNL1       -0.4684
     24 C          64.2419   82.6237   11.2647 C.3     1  UNL1        0.2526
     25 O          63.1340   89.8375   14.1226 O.3     1  UNL1       -0.4465
     26 C          63.6565   91.1218   13.5502 C.2     1  UNL1        0.3354
     27 O          62.8818   91.8376   12.4837 O.2     1  UNL1       -0.2483
     28 C          64.9537   91.6902   14.0444 C.3     1  UNL1        0.1746
     29 C          65.2363   91.7447   15.5165 C.3     1  UNL1        0.0314
     30 C          66.5334   92.3132   16.0107 C.3     1  UNL1        0.0040
     31 C          67.5480   92.8271   15.0327 C.3     1  UNL1        0.0216
     32 C          67.2655   92.7726   13.5606 C.3     1  UNL1        0.0939
     33 N          65.9683   92.2042   13.0664 N.am    1  UNL1       -0.2714
     34 C          65.6857   92.1497   11.5943 C.2     1  UNL1        0.2255
     35 O          64.3885   91.5812   11.1001 O.2     1  UNL1       -0.2749
     36 C          66.7003   92.6636   10.6163 C.3     1  UNL1        0.0767
     37 C          67.8280   91.7801   10.1716 C.3     1  UNL1        0.0091
     38 C          68.8426   92.2941    9.1936 C.3     1  UNL1        0.0005
     39 C          68.7295   93.6915    8.6603 C.3     1  UNL1        0.0000
     40 C          67.6018   94.5750    9.1051 C.3     1  UNL1        0.0005
     41 C          67.4888   95.9725    8.5718 C.3     1  UNL1        0.0000
     42 C          66.3611   96.8559    9.0165 C.3     1  UNL1        0.0000
     43 C          65.3465   96.3420    9.9945 C.3     1  UNL1        0.0000
     44 C          65.4596   94.9446   10.5278 C.3     1  UNL1        0.0005
     45 C          66.5872   94.0611   10.0830 C.3     1  UNL1        0.0086
@<TRIPOS>UNITY_ATOM_ATTR
11 1
charge -1
@<TRIPOS>BOND
     1    21    22    1
     2    22    15    1
     3    15    16   ar
     4    16    17   ar
     5    17    18   ar
     6    18    14    1
     7    14    13    1
     8     1    13    1
     9     1    25    1
    10    25    26    1
    11    26    27    2
    12    28    26    1
    13    28    29    1
    14    29    30    1
    15    30    31    1
    16    31    32    1
    17    32    33    1
    18    33    34   am
    19    34    35    2
    20    36    34    1
    21    36    37    1
    22    37    38    1
    23    38    39    1
    24    40    39    1
    25    40    41    1
    26    41    42    1
    27    42    43    1
    28    43    44    1
    29    45    44    1
    30     1     2    1
    31     2     3   ar
    32     3     4   ar
    33     4     5   ar
    34     5     6   ar
    35     6     8    1
    36     8     9    1
    37     9    10    1
    38    10    11   ar
    39    10    12   ar
    40     6     7   ar
    41    18    19   ar
    42    19    20   ar
    43    20    23    1
    44    23    24    1
    45    20    15   ar
    46    33    28    1
    47    45    36    1
    48     7     2   ar
    49    45    40    1
@<TRIPOS>MOLECULE
*****
 45 49 0 0 0
SMALL
GASTEIGER

@<TRIPOS>ATOM
      1 C          61.9364   87.7625   10.6658 C.3     1  UNL1        0.1916
      2 C          61.0707   87.5454    9.4603 C.ar    1  UNL1        0.0203
      3 C          60.9623   86.1789    8.8510 C.ar    1  UNL1       -0.0006
      4 C          60.0965   85.9618    7.6455 C.ar    1  UNL1        0.0029
      5 C          59.3392   87.1111    7.0492 C.ar    1  UNL1        0.0369
      6 C          59.4476   88.4776    7.6584 C.ar    1  UNL1        0.1389
      7 C          60.3134   88.6946    8.8640 C.ar    1  UNL1        0.0361
      8 O          58.6903   89.6268    7.0621 O.3     1  UNL1       -0.4694
      9 C          59.1445   90.2333    5.7675 C.3     1  UNL1        0.2469
     10 C          58.4074   91.4044    5.1885 C.2     1  UNL1        0.0940
     11 O          59.1688   92.5906    4.6754 O.co2   1  UNL1       -0.5454
     12 O          56.9090   91.3892    5.1225 O.co2   1  UNL1       -0.5454
     13 C          61.8961   86.7861   11.8038 C.3     1  UNL1        0.0530
     14 C          63.1075   85.9636   12.1296 C.3     1  UNL1        0.0305
     15 C          63.0184   81.5013   11.5552 C.ar    1  UNL1        0.1724
     16 C          63.4633   82.3931   10.4342 C.ar    1  UNL1        0.0397
     17 C          63.4930   83.8805   10.6257 C.ar    1  UNL1       -0.0009
     18 C          63.0778   84.4762   11.9382 C.ar    1  UNL1       -0.0188
     19 C          62.6328   83.5845   13.0592 C.ar    1  UNL1        0.0358
     20 C          62.6031   82.0970   12.8677 C.ar    1  UNL1        0.1721
     21 C          62.7980   79.4380    9.9920 C.3     1  UNL1        0.2526
     22 O          62.9887   80.0139   11.3638 O.3     1  UNL1       -0.4684
     23 O          62.1581   81.2053   13.9888 O.3     1  UNL1       -0.4684
     24 C          60.7268   80.7648   14.0739 C.3     1  UNL1        0.2526
     25 O          62.8426   88.9560   10.7333 O.3     1  UNL1       -0.4465
     26 C          62.5480   90.0677   11.6963 C.2     1  UNL1        0.3354
     27 O          61.2031   90.7320   11.6863 O.2     1  UNL1       -0.2483
     28 C          63.5982   90.5152   12.6693 C.3     1  UNL1        0.1746
     29 C          63.7202   89.8412   14.0039 C.3     1  UNL1        0.0314
     30 C          64.7704   90.2887   14.9768 C.3     1  UNL1        0.0040
     31 C          65.6988   91.4100   14.6153 C.3     1  UNL1        0.0216
     32 C          65.5769   92.0840   13.2808 C.3     1  UNL1        0.0939
     33 N          64.5266   91.6366   12.3078 N.am    1  UNL1       -0.2714
     34 C          64.4046   92.3105   10.9733 C.2     1  UNL1        0.2255
     35 O          63.3544   91.8631   10.0002 O.2     1  UNL1       -0.2749
     36 C          65.3330   93.4319   10.6118 C.3     1  UNL1        0.0767
     37 C          64.9253   94.8534   10.8624 C.3     1  UNL1        0.0091
     38 C          65.8536   95.9748   10.5009 C.3     1  UNL1        0.0005
     39 C          67.1897   95.6746    9.8888 C.3     1  UNL1        0.0000
     40 C          67.5975   94.2530    9.6381 C.3     1  UNL1        0.0005
     41 C          68.9335   93.9528    9.0260 C.3     1  UNL1        0.0000
     42 C          69.3412   92.5313    8.7753 C.3     1  UNL1        0.0000
     43 C          68.4129   91.4099    9.1368 C.3     1  UNL1        0.0000
     44 C          67.0768   91.7101    9.7490 C.3     1  UNL1        0.0005
     45 C          66.6691   93.1316    9.9996 C.3     1  UNL1        0.0086
@<TRIPOS>UNITY_ATOM_ATTR
11 1
charge -1
@<TRIPOS>BOND
     1    21    22    1
     2    22    15    1
     3    15    16   ar
     4    16    17   ar
     5    17    18   ar
     6    18    14    1
     7    14    13    1
     8     1    13    1
     9     1    25    1
    10    25    26    1
    11    26    27    2
    12    28    26    1
    13    28    29    1
    14    29    30    1
    15    30    31    1
    16    31    32    1
    17    32    33    1
    18    33    34   am
    19    34    35    2
    20    36    34    1
    21    36    37    1
    22    37    38    1
    23    38    39    1
    24    40    39    1
    25    40    41    1
    26    41    42    1
    27    42    43    1
    28    43    44    1
    29    45    44    1
    30     1     2    1
    31     2     3   ar
    32     3     4   ar
    33     4     5   ar
    34     5     6   ar
    35     6     8    1
    36     8     9    1
    37     9    10    1
    38    10    11   ar
    39    10    12   ar
    40     6     7   ar
    41    18    19   ar
    42    19    20   ar
    43    20    23    1
    44    23    24    1
    45    20    15   ar
    46    33    28    1
    47    45    36    1
    48     7     2   ar
    49    45    40    1
@<TRIPOS>MOLECULE
*****
 45 49 0 0 0
SMALL
GASTEIGER

@<TRIPOS>ATOM
      1 C          63.7632   90.3943   12.3450 C.3     1  UNL1        0.1916
      2 C          63.7981   90.5042   13.8405 C.ar    1  UNL1        0.0203
      3 C          62.9770   89.5713   14.6804 C.ar    1  UNL1       -0.0006
      4 C          63.0118   89.6812   16.1759 C.ar    1  UNL1        0.0029
      5 C          63.8678   90.7240   16.8316 C.ar    1  UNL1        0.0369
      6 C          64.6889   91.6569   15.9917 C.ar    1  UNL1        0.1389
      7 C          64.6540   91.5470   14.4961 C.ar    1  UNL1        0.0361
      8 O          65.5449   92.6997   16.6473 O.3     1  UNL1       -0.4694
      9 C          66.9958   92.8158   16.2844 C.3     1  UNL1        0.2469
     10 C          67.3916   93.3172   14.9273 C.2     1  UNL1        0.0940
     11 O          66.5299   94.3188   14.2171 O.co2   1  UNL1       -0.5454
     12 O          68.6491   92.8172   14.2804 O.co2   1  UNL1       -0.5454
     13 C          64.2931   91.5134   11.4982 C.3     1  UNL1        0.0530
     14 C          65.7189   91.9550   11.6455 C.3     1  UNL1        0.0305
     15 C          67.3423   95.2306    9.0215 C.ar    1  UNL1        0.1724
     16 C          68.0371   93.9025    9.0796 C.ar    1  UNL1        0.0397
     17 C          67.4959   92.8106    9.9543 C.ar    1  UNL1       -0.0009
     18 C          66.2601   93.0469   10.7708 C.ar    1  UNL1       -0.0188
     19 C          65.5654   94.3750   10.7127 C.ar    1  UNL1        0.0358
     20 C          66.1065   95.4669    9.8381 C.ar    1  UNL1        0.1721
     21 C          67.0570   96.8549    7.0140 C.3     1  UNL1        0.2526
     22 O          67.8835   96.3225    8.1469 O.3     1  UNL1       -0.4684
     23 O          65.4117   96.7951    9.7800 O.3     1  UNL1       -0.4684
     24 C          63.9241   96.8560    9.5976 C.3     1  UNL1        0.2526
     25 O          63.1985   89.1654   11.6961 O.3     1  UNL1       -0.4465
     26 C          61.7170   89.0334   11.5018 C.2     1  UNL1        0.3354
     27 O          60.7729   89.7209   12.4430 O.2     1  UNL1       -0.2483
     28 C          61.1797   88.2139   10.3661 C.3     1  UNL1        0.1746
     29 C          60.2443   88.8338    9.3707 C.3     1  UNL1        0.0314
     30 C          59.7069   88.0143    8.2351 C.3     1  UNL1        0.0040
     31 C          60.1050   86.5749    8.0948 C.3     1  UNL1        0.0216
     32 C          61.0403   85.9550    9.0902 C.3     1  UNL1        0.0939
     33 N          61.5777   86.7745   10.2258 N.am    1  UNL1       -0.2714
     34 C          62.5131   86.1546   11.2212 C.2     1  UNL1        0.2255
     35 O          63.0505   86.9741   12.3569 O.2     1  UNL1       -0.2749
     36 C          62.9111   84.7152   11.0809 C.3     1  UNL1        0.0767
     37 C          63.4542   84.2109    9.7768 C.3     1  UNL1        0.0091
     38 C          63.8522   82.7715    9.6365 C.3     1  UNL1        0.0005
     39 C          63.7072   81.8363   10.8003 C.3     1  UNL1        0.0000
     40 C          63.1641   82.3406   12.1045 C.3     1  UNL1        0.0005
     41 C          63.0190   81.4055   13.2683 C.3     1  UNL1        0.0000
     42 C          62.4759   81.9098   14.5724 C.3     1  UNL1        0.0000
     43 C          62.0779   83.3492   14.7127 C.3     1  UNL1        0.0000
     44 C          62.2230   84.2843   13.5489 C.3     1  UNL1        0.0005
     45 C          62.7660   83.7800   12.2448 C.3     1  UNL1        0.0086
@<TRIPOS>UNITY_ATOM_ATTR
11 1
charge -1
@<TRIPOS>BOND
     1    21    22    1
     2    22    15    1
     3    15    16   ar
     4    16    17   ar
     5    17    18   ar
     6    18    14    1
     7    14    13    1
     8     1    13    1
     9     1    25    1
    10    25    26    1
    11    26    27    2
    12    28    26    1
    13    28    29    1
    14    29    30    1
    15    30    31    1
    16    31    32    1
    17    32    33    1
    18    33    34   am
    19    34    35    2
    20    36    34    1
    21    36    37    1
    22    37    38    1
    23    38    39    1
    24    40    39    1
    25    40    41    1
    26    41    42    1
    27    42    43    1
    28    43    44    1
    29    45    44    1
    30     1     2    1
    31     2     3   ar
    32     3     4   ar
    33     4     5   ar
    34     5     6   ar
    35     6     8    1
    36     8     9    1
    37     9    10    1
    38    10    11   ar
    39    10    12   ar
    40     6     7   ar
    41    18    19   ar
    42    19    20   ar
    43    20    23    1
    44    23    24    1
    45    20    15   ar
    46    33    28    1
    47    45    36    1
    48     7     2   ar
    49    45    40    1
@<TRIPOS>MOLECULE
*****
 45 49 0 0 0
SMALL
GASTEIGER

@<TRIPOS>ATOM
      1 C          63.2964   90.3130   12.1500 C.3     1  UNL1        0.1916
      2 C          63.4145   89.7657   13.5415 C.ar    1  UNL1        0.0203
      3 C          63.1557   90.6547   14.7216 C.ar    1  UNL1       -0.0006
      4 C          63.2739   90.1074   16.1132 C.ar    1  UNL1        0.0029
      5 C          63.6509   88.6710   16.3247 C.ar    1  UNL1        0.0369
      6 C          63.9097   87.7820   15.1445 C.ar    1  UNL1        0.1389
      7 C          63.7916   88.3294   13.7530 C.ar    1  UNL1        0.0361
      8 O          64.2868   86.3456   15.3560 O.3     1  UNL1       -0.4694
      9 C          63.8300   85.6240   16.5892 C.3     1  UNL1        0.2469
     10 C          62.6063   86.0899   17.3209 C.2     1  UNL1        0.0940
     11 O          62.7350   86.6998   18.6853 O.co2   1  UNL1       -0.5454
     12 O          61.2540   85.9460   16.6882 O.co2   1  UNL1       -0.5454
     13 C          63.6437   91.7462   11.8757 C.3     1  UNL1        0.0530
     14 C          65.0451   92.1179   11.4912 C.3     1  UNL1        0.0305
     15 C          68.2442   92.3981   14.6435 C.ar    1  UNL1        0.1724
     16 C          68.6108   92.0473   13.2320 C.ar    1  UNL1        0.0397
     17 C          67.5445   91.9539   12.1812 C.ar    1  UNL1       -0.0009
     18 C          66.1115   92.2113   12.5420 C.ar    1  UNL1       -0.0188
     19 C          65.7448   92.5621   13.9535 C.ar    1  UNL1        0.0358
     20 C          66.8112   92.6555   15.0043 C.ar    1  UNL1        0.1721
     21 C          69.7620   93.8341   16.1875 C.3     1  UNL1        0.2526
     22 O          69.3106   92.4914   15.6943 O.3     1  UNL1       -0.4684
     23 O          66.4445   93.0063   16.4159 O.3     1  UNL1       -0.4684
     24 C          65.1140   92.5914   16.9703 C.3     1  UNL1        0.2526
     25 O          62.8308   89.4271   11.0326 O.3     1  UNL1       -0.4465
     26 C          61.4546   88.8317   11.0713 C.2     1  UNL1        0.3354
     27 O          60.5399   89.1312   12.2219 O.2     1  UNL1       -0.2483
     28 C          60.9930   87.9368    9.9595 C.3     1  UNL1        0.1746
     29 C          60.0514   88.4614    8.9163 C.3     1  UNL1        0.0314
     30 C          59.5898   87.5666    7.8045 C.3     1  UNL1        0.0040
     31 C          60.0698   86.1471    7.7358 C.3     1  UNL1        0.0216
     32 C          61.0114   85.6225    8.7789 C.3     1  UNL1        0.0939
     33 N          61.4730   86.5174    9.8908 N.am    1  UNL1       -0.2714
     34 C          62.4146   85.9928   10.9339 C.2     1  UNL1        0.2255
     35 O          62.8762   86.8876   12.0458 O.2     1  UNL1       -0.2749
     36 C          62.8946   84.5733   10.8652 C.3     1  UNL1        0.0767
     37 C          63.5068   84.0490    9.6002 C.3     1  UNL1        0.0091
     38 C          63.9869   82.6295    9.5315 C.3     1  UNL1        0.0005
     39 C          63.8547   81.7344   10.7278 C.3     1  UNL1        0.0000
     40 C          63.2425   82.2587   11.9929 C.3     1  UNL1        0.0005
     41 C          63.1103   81.3636   13.1892 C.3     1  UNL1        0.0000
     42 C          62.4981   81.8879   14.4542 C.3     1  UNL1        0.0000
     43 C          62.0181   83.3073   14.5229 C.3     1  UNL1        0.0000
     44 C          62.1502   84.2025   13.3266 C.3     1  UNL1        0.0005
     45 C          62.7624   83.6782   12.0616 C.3     1  UNL1        0.0086
@<TRIPOS>UNITY_ATOM_ATTR
11 1
charge -1
@<TRIPOS>BOND
     1    21    22    1
     2    22    15    1
     3    15    16   ar
     4    16    17   ar
     5    17    18   ar
     6    18    14    1
     7    14    13    1
     8     1    13    1
     9     1    25    1
    10    25    26    1
    11    26    27    2
    12    28    26    1
    13    28    29    1
    14    29    30    1
    15    30    31    1
    16    31    32    1
    17    32    33    1
    18    33    34   am
    19    34    35    2
    20    36    34    1
    21    36    37    1
    22    37    38    1
    23    38    39    1
    24    40    39    1
    25    40    41    1
    26    41    42    1
    27    42    43    1
    28    43    44    1
    29    45    44    1
    30     1     2    1
    31     2     3   ar
    32     3     4   ar
    33     4     5   ar
    34     5     6   ar
    35     6     8    1
    36     8     9    1
    37     9    10    1
    38    10    11   ar
    39    10    12   ar
    40     6     7   ar
    41    18    19   ar
    42    19    20   ar
    43    20    23    1
    44    23    24    1
    45    20    15   ar
    46    33    28    1
    47    45    36    1
    48     7     2   ar
    49    45    40    1
