@<TRIPOS>MOLECULE
*****
 45 49 0 0 0
SMALL
GASTEIGER

@<TRIPOS>ATOM
      1 N          62.1722   89.0702   10.5069 N.am    1  UNL1       -0.2724
      2 C          62.8719   89.2368   11.8231 C.2     1  UNL1        0.2491
      3 O          63.8580   88.2048   12.2843 O.2     1  UNL1       -0.2727
      4 C          61.1862   90.1022   10.0457 C.3     1  UNL1        0.1111
      5 C          59.8095   89.6864    9.6191 C.3     1  UNL1        0.0939
      6 N          59.6272   88.8438    8.3915 N.3     1  UNL1       -0.2712
      7 C          58.8911   89.9180    6.1434 C.3     1  UNL1        0.0188
      8 C          59.9742   89.3994    7.0422 C.3     1  UNL1        0.0722
      9 C          59.0978   87.4456    8.5134 C.3     1  UNL1        0.0722
     10 C          59.7055   86.3403    7.7017 C.3     1  UNL1        0.0188
     11 C          62.4585   87.8715    9.6517 C.3     1  UNL1        0.1202
     12 C          62.4554   86.4995   10.2583 C.ar    1  UNL1       -0.0023
     13 C          61.9647   86.3011   11.6617 C.ar    1  UNL1       -0.0026
     14 C          61.9616   84.9292   12.2683 C.ar    1  UNL1       -0.0003
     15 C          62.4492   83.7557   11.4713 C.ar    1  UNL1       -0.0000
     16 C          62.9399   83.9541   10.0677 C.ar    1  UNL1       -0.0003
     17 C          62.9430   85.3260    9.4612 C.ar    1  UNL1       -0.0026
     18 C          62.4460   82.3838   12.0778 C.ar    1  UNL1        0.0001
     19 C          61.9587   82.1860   13.4826 C.ar    1  UNL1        0.0009
     20 C          61.9556   80.8141   14.0891 C.ar    1  UNL1        0.0114
     21 C          62.4398   79.6400   13.2909 C.ar    1  UNL1        0.0577
     22 CL         62.4366   78.2681   13.8974 Cl      1  UNL1       -0.0822
     23 C          62.9271   79.8379   11.8860 C.ar    1  UNL1        0.0114
     24 C          62.9302   81.2098   11.2795 C.ar    1  UNL1        0.0009
     25 C          62.5856   90.4355   12.6782 C.3     1  UNL1        0.1931
     26 N          63.6993   91.1061   13.4267 N.ar    1  UNL1       -0.3030
     27 C          63.8074   90.9441   14.9140 C.ar    1  UNL1        0.1747
     28 N          64.9210   91.6147   15.6624 N.ar    1  UNL1       -0.1847
     29 C          65.9265   92.4472   14.9236 C.ar    1  UNL1        0.2779
     30 O          67.0401   93.1178   15.6721 O.2     1  UNL1       -0.2654
     31 C          65.8183   92.6092   13.4363 C.ar    1  UNL1        0.0474
     32 C          64.7047   91.9387   12.6878 C.ar    1  UNL1        0.0399
     33 C          64.5966   92.1006   11.2005 C.3     1  UNL1        0.0437
     34 C          65.6020   92.9332   10.4617 C.3     1  UNL1        0.0066
     35 C          66.7156   93.6038   11.2102 C.3     1  UNL1        0.0053
     36 C          66.8238   93.4418   12.6975 C.3     1  UNL1        0.0324
     37 S          62.8019   90.1115   15.6529 S.3     1  UNL1       -0.0724
     38 C          63.2583   89.1344   16.6954 C.3     1  UNL1        0.0913
     39 C          63.4724   87.6950   16.3316 C.ar    1  UNL1       -0.0108
     40 C          64.3478   87.3380   15.1669 C.ar    1  UNL1       -0.0011
     41 C          64.5619   85.8987   14.8031 C.ar    1  UNL1        0.0293
     42 C          63.9008   84.8163   15.6040 C.ar    1  UNL1        0.1401
     43 F          64.1149   83.3769   15.2402 F       1  UNL1       -0.2042
     44 C          63.0255   85.1732   16.7686 C.ar    1  UNL1        0.0293
     45 C          62.8113   86.6127   17.1325 C.ar    1  UNL1       -0.0011
@<TRIPOS>BOND
     1     7     8    1
     2     8     6    1
     3     6     9    1
     4     9    10    1
     5     6     5    1
     6     5     4    1
     7     4     1    1
     8     1    11    1
     9    11    12    1
    10    12    13   ar
    11    13    14   ar
    12    14    15   ar
    13    15    18    1
    14    18    19   ar
    15    19    20   ar
    16    20    21   ar
    17    21    22    1
    18    21    23   ar
    19    23    24   ar
    20    15    16   ar
    21    16    17   ar
    22     1     2   am
    23     2     3    2
    24     2    25    1
    25    25    26    1
    26    26    27   ar
    27    27    37    1
    28    37    38    1
    29    38    39    1
    30    39    40   ar
    31    40    41   ar
    32    41    42   ar
    33    42    43    1
    34    42    44   ar
    35    44    45   ar
    36    27    28   ar
    37    28    29   ar
    38    29    30    2
    39    29    31   ar
    40    31    32   ar
    41    32    33    1
    42    33    34    1
    43    34    35    1
    44    35    36    1
    45    17    12   ar
    46    32    26   ar
    47    24    18   ar
    48    45    39   ar
    49    36    31    1
@<TRIPOS>MOLECULE
*****
 45 49 0 0 0
SMALL
GASTEIGER

@<TRIPOS>ATOM
      1 N          63.1337   87.9234   13.0698 N.am    1  UNL1       -0.2724
      2 C          62.1192   87.3934   12.1003 C.2     1  UNL1        0.2491
      3 O          61.0348   88.2918   11.5835 O.2     1  UNL1       -0.2727
      4 C          64.2181   87.0251   13.5866 C.3     1  UNL1        0.1111
      5 C          64.5255   86.9881   15.0543 C.3     1  UNL1        0.0939
      6 N          63.5831   86.3056   16.0010 N.3     1  UNL1       -0.2712
      7 C          63.0456   88.5859   17.1240 C.3     1  UNL1        0.0188
      8 C          62.9077   87.0928   17.0845 C.3     1  UNL1        0.0722
      9 C          63.3162   84.8359   15.8641 C.3     1  UNL1        0.0722
     10 C          64.4156   83.9110   15.4332 C.3     1  UNL1        0.0188
     11 C          63.0638   89.3518   13.5225 C.3     1  UNL1        0.1202
     12 C          63.7804   90.4193   12.7500 C.ar    1  UNL1       -0.0023
     13 C          63.4007   90.6973   11.3257 C.ar    1  UNL1       -0.0026
     14 C          64.1173   91.7648   10.5531 C.ar    1  UNL1       -0.0003
     15 C          65.2135   92.5544   11.2048 C.ar    1  UNL1       -0.0000
     16 C          65.5932   92.2765   12.6292 C.ar    1  UNL1       -0.0003
     17 C          64.8766   91.2090   13.4017 C.ar    1  UNL1       -0.0026
     18 C          65.9301   93.6220   10.4323 C.ar    1  UNL1        0.0001
     19 C          65.4281   95.0351   10.4631 C.ar    1  UNL1        0.0009
     20 C          66.1446   96.1026    9.6905 C.ar    1  UNL1        0.0114
     21 C          67.3633   95.7571    8.8871 C.ar    1  UNL1        0.0577
     22 CL         68.0799   96.8246    8.1146 Cl      1  UNL1       -0.0822
     23 C          67.8654   94.3439    8.8563 C.ar    1  UNL1        0.0114
     24 C          67.1488   93.2763    9.6289 C.ar    1  UNL1        0.0009
     25 C          62.1891   85.9651   11.6476 C.3     1  UNL1        0.1931
     26 N          62.1667   85.6405   10.1833 N.ar    1  UNL1       -0.3030
     27 C          63.1913   84.7096    9.6057 C.ar    1  UNL1        0.1747
     28 N          63.1689   84.3850    8.1414 N.ar    1  UNL1       -0.1847
     29 C          62.1219   84.9913    7.2547 C.ar    1  UNL1        0.2779
     30 O          62.0995   84.6666    5.7905 O.2     1  UNL1       -0.2654
     31 C          61.0973   85.9222    7.8323 C.ar    1  UNL1        0.0474
     32 C          61.1197   86.2468    9.2966 C.ar    1  UNL1        0.0399
     33 C          60.0951   87.1777    9.8742 C.3     1  UNL1        0.0437
     34 C          59.0482   87.7840    8.9875 C.3     1  UNL1        0.0066
     35 C          59.0258   87.4594    7.5232 C.3     1  UNL1        0.0053
     36 C          60.0503   86.5285    6.9456 C.3     1  UNL1        0.0324
     37 S          64.2383   84.1032   10.4924 S.3     1  UNL1       -0.0724
     38 C          64.2583   82.6214   10.7243 C.3     1  UNL1        0.0913
     39 C          63.3392   82.0087   11.7391 C.ar    1  UNL1       -0.0108
     40 C          62.5888   82.8854   12.6975 C.ar    1  UNL1       -0.0011
     41 C          61.6697   82.2727   13.7122 C.ar    1  UNL1        0.0293
     42 C          61.5009   80.7833   13.7687 C.ar    1  UNL1        0.1401
     43 F          60.5818   80.1706   14.7834 F       1  UNL1       -0.2042
     44 C          62.2512   79.9066   12.8104 C.ar    1  UNL1        0.0293
     45 C          63.1704   80.5193   11.7956 C.ar    1  UNL1       -0.0011
@<TRIPOS>BOND
     1     7     8    1
     2     8     6    1
     3     6     9    1
     4     9    10    1
     5     6     5    1
     6     5     4    1
     7     4     1    1
     8     1    11    1
     9    11    12    1
    10    12    13   ar
    11    13    14   ar
    12    14    15   ar
    13    15    18    1
    14    18    19   ar
    15    19    20   ar
    16    20    21   ar
    17    21    22    1
    18    21    23   ar
    19    23    24   ar
    20    15    16   ar
    21    16    17   ar
    22     1     2   am
    23     2     3    2
    24     2    25    1
    25    25    26    1
    26    26    27   ar
    27    27    37    1
    28    37    38    1
    29    38    39    1
    30    39    40   ar
    31    40    41   ar
    32    41    42   ar
    33    42    43    1
    34    42    44   ar
    35    44    45   ar
    36    27    28   ar
    37    28    29   ar
    38    29    30    2
    39    29    31   ar
    40    31    32   ar
    41    32    33    1
    42    33    34    1
    43    34    35    1
    44    35    36    1
    45    17    12   ar
    46    32    26   ar
    47    24    18   ar
    48    45    39   ar
    49    36    31    1
@<TRIPOS>MOLECULE
*****
 45 49 0 0 0
SMALL
GASTEIGER

@<TRIPOS>ATOM
      1 N          63.2200   87.9145   13.1230 N.am    1  UNL1       -0.2724
      2 C          62.2098   87.3828   12.1500 C.2     1  UNL1        0.2491
      3 O          61.1276   88.2803   11.6270 O.2     1  UNL1       -0.2727
      4 C          64.3022   87.0171   13.6460 C.3     1  UNL1        0.1111
      5 C          64.5758   86.9521   15.1194 C.3     1  UNL1        0.0939
      6 N          63.5507   86.3709   16.0476 N.3     1  UNL1       -0.2712
      7 C          64.1659   83.8990   15.5363 C.3     1  UNL1        0.0188
      8 C          63.1462   84.9328   15.9124 C.3     1  UNL1        0.0722
      9 C          62.9301   87.2278   17.1109 C.3     1  UNL1        0.0722
     10 C          63.0401   88.7215   17.0293 C.3     1  UNL1        0.0188
     11 C          63.1481   89.3437   13.5730 C.3     1  UNL1        0.1202
     12 C          63.8481   90.4132   12.7881 C.ar    1  UNL1       -0.0023
     13 C          64.9755   91.1832   13.4094 C.ar    1  UNL1       -0.0026
     14 C          65.6755   92.2527   12.6246 C.ar    1  UNL1       -0.0003
     15 C          65.2481   92.5523   11.2183 C.ar    1  UNL1       -0.0000
     16 C          64.1207   91.7824   10.5969 C.ar    1  UNL1       -0.0003
     17 C          63.4206   90.7128   11.3818 C.ar    1  UNL1       -0.0026
     18 C          65.9481   93.6219   10.4334 C.ar    1  UNL1        0.0001
     19 C          67.1203   93.2701    9.5661 C.ar    1  UNL1        0.0009
     20 C          67.8203   94.3397    8.7813 C.ar    1  UNL1        0.0114
     21 C          67.3481   95.7610    8.8637 C.ar    1  UNL1        0.0577
     22 CL         68.0481   96.8306    8.0788 Cl      1  UNL1       -0.0822
     23 C          66.1759   96.1128    9.7310 C.ar    1  UNL1        0.0114
     24 C          65.4759   95.0433   10.5159 C.ar    1  UNL1        0.0009
     25 C          62.2817   85.9538   11.7000 C.3     1  UNL1        0.1931
     26 N          62.2368   85.6249   10.2372 N.ar    1  UNL1       -0.3030
     27 C          63.2477   84.6863    9.6481 C.ar    1  UNL1        0.1747
     28 N          63.2028   84.3575    8.1852 N.ar    1  UNL1       -0.1847
     29 C          62.1469   84.9672    7.3115 C.ar    1  UNL1        0.2779
     30 O          62.1020   84.6383    5.8487 O.2     1  UNL1       -0.2654
     31 C          61.1360   85.9058    7.9006 C.ar    1  UNL1        0.0474
     32 C          61.1809   86.2347    9.3634 C.ar    1  UNL1        0.0399
     33 C          60.1700   87.1733    9.9525 C.3     1  UNL1        0.0437
     34 C          59.1142   87.7830    9.0788 C.3     1  UNL1        0.0066
     35 C          59.0693   87.4541    7.6160 C.3     1  UNL1        0.0053
     36 C          60.0801   86.5156    7.0269 C.3     1  UNL1        0.0324
     37 S          64.3036   84.0765   10.5218 S.3     1  UNL1       -0.0724
     38 C          64.3186   82.5953   10.7575 C.3     1  UNL1        0.0913
     39 C          63.3732   81.9840   11.7488 C.ar    1  UNL1       -0.0108
     40 C          63.1486   80.5009   11.7549 C.ar    1  UNL1       -0.0011
     41 C          62.2032   79.8897   12.7462 C.ar    1  UNL1        0.0293
     42 C          61.4825   80.7615   13.7313 C.ar    1  UNL1        0.1401
     43 F          60.5371   80.1502   14.7226 F       1  UNL1       -0.2042
     44 C          61.7071   82.2445   13.7252 C.ar    1  UNL1        0.0293
     45 C          62.6525   82.8558   12.7339 C.ar    1  UNL1       -0.0011
@<TRIPOS>BOND
     1     7     8    1
     2     8     6    1
     3     6     9    1
     4     9    10    1
     5     6     5    1
     6     5     4    1
     7     4     1    1
     8     1    11    1
     9    11    12    1
    10    12    13   ar
    11    13    14   ar
    12    14    15   ar
    13    15    18    1
    14    18    19   ar
    15    19    20   ar
    16    20    21   ar
    17    21    22    1
    18    21    23   ar
    19    23    24   ar
    20    15    16   ar
    21    16    17   ar
    22     1     2   am
    23     2     3    2
    24     2    25    1
    25    25    26    1
    26    26    27   ar
    27    27    37    1
    28    37    38    1
    29    38    39    1
    30    39    40   ar
    31    40    41   ar
    32    41    42   ar
    33    42    43    1
    34    42    44   ar
    35    44    45   ar
    36    27    28   ar
    37    28    29   ar
    38    29    30    2
    39    29    31   ar
    40    31    32   ar
    41    32    33    1
    42    33    34    1
    43    34    35    1
    44    35    36    1
    45    17    12   ar
    46    32    26   ar
    47    24    18   ar
    48    45    39   ar
    49    36    31    1
@<TRIPOS>MOLECULE
*****
 45 49 0 0 0
SMALL
GASTEIGER

@<TRIPOS>ATOM
      1 N          61.8939   87.3832   11.8575 N.am    1  UNL1       -0.2724
      2 C          62.3285   88.6117   12.6002 C.2     1  UNL1        0.2491
      3 O          61.4312   89.8127   12.6535 O.2     1  UNL1       -0.2727
      4 C          62.7910   86.1823   11.8042 C.3     1  UNL1        0.1111
      5 C          62.3950   84.9856   10.9910 C.3     1  UNL1        0.0939
      6 N          63.1416   84.6531    9.7332 N.3     1  UNL1       -0.2712
      7 C          63.7718   82.2577   10.5175 C.3     1  UNL1        0.0188
      8 C          64.0765   83.4804    9.7037 C.3     1  UNL1        0.0722
      9 C          62.9534   85.4933    8.5050 C.3     1  UNL1        0.0722
     10 C          62.3952   84.8800    7.2551 C.3     1  UNL1        0.0188
     11 C          60.5620   87.3555   11.1679 C.3     1  UNL1        0.1202
     12 C          60.3569   88.1326    9.9014 C.ar    1  UNL1       -0.0023
     13 C          59.6801   87.4888    8.7277 C.ar    1  UNL1       -0.0026
     14 C          59.4751   88.2658    7.4612 C.ar    1  UNL1       -0.0003
     15 C          59.9468   89.6867    7.3683 C.ar    1  UNL1       -0.0000
     16 C          60.6237   90.3305    8.5419 C.ar    1  UNL1       -0.0003
     17 C          60.8287   89.5535    9.8085 C.ar    1  UNL1       -0.0026
     18 C          59.7417   90.4637    6.1017 C.ar    1  UNL1        0.0001
     19 C          58.3625   90.8982    5.7033 C.ar    1  UNL1        0.0009
     20 C          58.1574   91.6752    4.4368 C.ar    1  UNL1        0.0114
     21 C          59.3316   92.0178    3.5686 C.ar    1  UNL1        0.0577
     22 CL         59.1266   92.7948    2.3021 Cl      1  UNL1       -0.0822
     23 C          60.7110   91.5833    3.9670 C.ar    1  UNL1        0.0114
     24 C          60.9161   90.8063    5.2335 C.ar    1  UNL1        0.0009
     25 C          63.6603   88.6394   13.2898 C.3     1  UNL1        0.1931
     26 N          63.9427   89.6783   14.3342 N.ar    1  UNL1       -0.3030
     27 C          63.4162   89.5033   15.7278 C.ar    1  UNL1        0.1747
     28 N          63.6986   90.5422   16.7722 N.ar    1  UNL1       -0.1847
     29 C          64.5075   91.7562   16.4231 C.ar    1  UNL1        0.2779
     30 O          64.7899   92.7951   17.4675 O.2     1  UNL1       -0.2654
     31 C          65.0340   91.9313   15.0295 C.ar    1  UNL1        0.0474
     32 C          64.7516   90.8923   13.9850 C.ar    1  UNL1        0.0399
     33 C          65.2781   91.0674   12.5914 C.3     1  UNL1        0.0437
     34 C          66.0870   92.2813   12.2423 C.3     1  UNL1        0.0066
     35 C          66.3694   93.3203   13.2867 C.3     1  UNL1        0.0053
     36 C          65.8429   93.1452   14.6803 C.3     1  UNL1        0.0324
     37 S          62.6072   88.2893   16.0770 S.3     1  UNL1       -0.0724
     38 C          63.2658   87.1129   16.7345 C.3     1  UNL1        0.0913
     39 C          63.4989   85.8521   15.9561 C.ar    1  UNL1       -0.0108
     40 C          64.7147   85.7209   15.0873 C.ar    1  UNL1       -0.0011
     41 C          64.9478   84.4601   14.3089 C.ar    1  UNL1        0.0293
     42 C          63.9651   83.3304   14.3992 C.ar    1  UNL1        0.1401
     43 F          64.1982   82.0696   13.6208 F       1  UNL1       -0.2042
     44 C          62.7493   83.4615   15.2678 C.ar    1  UNL1        0.0293
     45 C          62.5162   84.7224   16.0463 C.ar    1  UNL1       -0.0011
@<TRIPOS>BOND
     1     7     8    1
     2     8     6    1
     3     6     9    1
     4     9    10    1
     5     6     5    1
     6     5     4    1
     7     4     1    1
     8     1    11    1
     9    11    12    1
    10    12    13   ar
    11    13    14   ar
    12    14    15   ar
    13    15    18    1
    14    18    19   ar
    15    19    20   ar
    16    20    21   ar
    17    21    22    1
    18    21    23   ar
    19    23    24   ar
    20    15    16   ar
    21    16    17   ar
    22     1     2   am
    23     2     3    2
    24     2    25    1
    25    25    26    1
    26    26    27   ar
    27    27    37    1
    28    37    38    1
    29    38    39    1
    30    39    40   ar
    31    40    41   ar
    32    41    42   ar
    33    42    43    1
    34    42    44   ar
    35    44    45   ar
    36    27    28   ar
    37    28    29   ar
    38    29    30    2
    39    29    31   ar
    40    31    32   ar
    41    32    33    1
    42    33    34    1
    43    34    35    1
    44    35    36    1
    45    17    12   ar
    46    32    26   ar
    47    24    18   ar
    48    45    39   ar
    49    36    31    1
@<TRIPOS>MOLECULE
*****
 45 49 0 0 0
SMALL
GASTEIGER

@<TRIPOS>ATOM
      1 N          59.8801   93.0573    1.3890 N.am    1  UNL1       -0.2724
      2 C          59.2089   92.9043    0.0563 C.2     1  UNL1        0.2491
      3 O          57.7117   92.8742   -0.0304 O.2     1  UNL1       -0.2727
      4 C          61.3772   93.0874    1.4758 C.3     1  UNL1        0.1111
      5 C          62.0782   94.3394    1.9128 C.3     1  UNL1        0.0939
      6 N          63.5594   94.4762    1.7195 N.3     1  UNL1       -0.2712
      7 C          65.1660   96.1543    2.8826 C.3     1  UNL1        0.0188
      8 C          64.2018   95.8303    1.7802 C.3     1  UNL1        0.0722
      9 C          64.3982   93.2589    1.4654 C.3     1  UNL1        0.0722
     10 C          65.5080   93.3098    0.4576 C.3     1  UNL1        0.0188
     11 C          59.0540   93.1804    2.6350 C.3     1  UNL1        0.1202
     12 C          59.2531   92.2145    3.7653 C.ar    1  UNL1       -0.0023
     13 C          58.0724   91.7251    4.5505 C.ar    1  UNL1       -0.0026
     14 C          58.2716   90.7593    5.6807 C.ar    1  UNL1       -0.0003
     15 C          59.6514   90.2828    6.0258 C.ar    1  UNL1       -0.0000
     16 C          60.8321   90.7722    5.2406 C.ar    1  UNL1       -0.0003
     17 C          60.6330   91.7380    4.1104 C.ar    1  UNL1       -0.0026
     18 C          59.8505   89.3169    7.1560 C.ar    1  UNL1        0.0001
     19 C          60.4682   89.7831    8.4410 C.ar    1  UNL1        0.0009
     20 C          60.6673   88.8173    9.5712 C.ar    1  UNL1        0.0114
     21 C          60.2487   87.3852    9.4165 C.ar    1  UNL1        0.0577
     22 CL         60.4479   86.4193   10.5468 Cl      1  UNL1       -0.0822
     23 C          59.6310   86.9189    8.1316 C.ar    1  UNL1        0.0114
     24 C          59.4319   87.8848    7.0013 C.ar    1  UNL1        0.0009
     25 C          60.0349   92.7813   -1.1897 C.3     1  UNL1        0.1931
     26 N          59.7637   93.6782   -2.3609 N.ar    1  UNL1       -0.3030
     27 C          60.5221   94.9634   -2.5129 C.ar    1  UNL1        0.1747
     28 N          60.2509   95.8604   -3.6841 N.ar    1  UNL1       -0.1847
     29 C          59.2213   95.4722   -4.7035 C.ar    1  UNL1        0.2779
     30 O          58.9500   96.3692   -5.8747 O.2     1  UNL1       -0.2654
     31 C          58.4628   94.1870   -4.5516 C.ar    1  UNL1        0.0474
     32 C          58.7340   93.2900   -3.3803 C.ar    1  UNL1        0.0399
     33 C          57.9756   92.0048   -3.2284 C.3     1  UNL1        0.0437
     34 C          56.9460   91.6167   -4.2477 C.3     1  UNL1        0.0066
     35 C          56.6747   92.5136   -5.4190 C.3     1  UNL1        0.0053
     36 C          57.4331   93.7988   -5.5709 C.3     1  UNL1        0.0324
     37 S          61.5518   95.3516   -1.4935 S.3     1  UNL1       -0.0724
     38 C          62.9685   95.6041   -1.9170 C.3     1  UNL1        0.0913
     39 C          63.6168   94.7138   -2.9353 C.ar    1  UNL1       -0.0108
     40 C          63.5432   93.2233   -2.7838 C.ar    1  UNL1       -0.0011
     41 C          64.1915   92.3330   -3.8021 C.ar    1  UNL1        0.0293
     42 C          64.9134   92.9332   -4.9720 C.ar    1  UNL1        0.1401
     43 F          65.5617   92.0429   -5.9903 F       1  UNL1       -0.2042
     44 C          64.9870   94.4236   -5.1236 C.ar    1  UNL1        0.0293
     45 C          64.3387   95.3140   -4.1052 C.ar    1  UNL1       -0.0011
@<TRIPOS>BOND
     1     7     8    1
     2     8     6    1
     3     6     9    1
     4     9    10    1
     5     6     5    1
     6     5     4    1
     7     4     1    1
     8     1    11    1
     9    11    12    1
    10    12    13   ar
    11    13    14   ar
    12    14    15   ar
    13    15    18    1
    14    18    19   ar
    15    19    20   ar
    16    20    21   ar
    17    21    22    1
    18    21    23   ar
    19    23    24   ar
    20    15    16   ar
    21    16    17   ar
    22     1     2   am
    23     2     3    2
    24     2    25    1
    25    25    26    1
    26    26    27   ar
    27    27    37    1
    28    37    38    1
    29    38    39    1
    30    39    40   ar
    31    40    41   ar
    32    41    42   ar
    33    42    43    1
    34    42    44   ar
    35    44    45   ar
    36    27    28   ar
    37    28    29   ar
    38    29    30    2
    39    29    31   ar
    40    31    32   ar
    41    32    33    1
    42    33    34    1
    43    34    35    1
    44    35    36    1
    45    17    12   ar
    46    32    26   ar
    47    24    18   ar
    48    45    39   ar
    49    36    31    1
@<TRIPOS>MOLECULE
*****
 45 49 0 0 0
SMALL
GASTEIGER

@<TRIPOS>ATOM
      1 N          62.5208   85.7857   10.6565 N.am    1  UNL1       -0.2724
      2 C          63.2190   85.1115   11.8002 C.2     1  UNL1        0.2491
      3 O          63.1467   85.7032   13.1768 O.2     1  UNL1       -0.2727
      4 C          62.5931   85.1941    9.2800 C.3     1  UNL1        0.1111
      5 C          62.1325   85.9914    8.0959 C.3     1  UNL1        0.0939
      6 N          60.8807   85.5990    7.3685 N.3     1  UNL1       -0.2712
      7 C          59.5229   87.7572    7.8668 C.3     1  UNL1        0.0188
      8 C          59.5796   86.2676    7.7003 C.3     1  UNL1        0.0722
      9 C          60.9301   84.5381    6.3093 C.3     1  UNL1        0.0722
     10 C          62.2083   84.2758    5.5695 C.3     1  UNL1        0.0188
     11 C          61.7504   87.0516   10.8894 C.3     1  UNL1        0.1202
     12 C          62.4759   88.3582   11.0177 C.ar    1  UNL1       -0.0023
     13 C          63.1926   88.6961   12.2913 C.ar    1  UNL1       -0.0026
     14 C          63.9181   90.0027   12.4197 C.ar    1  UNL1       -0.0003
     15 C          63.9268   90.9714   11.2744 C.ar    1  UNL1       -0.0000
     16 C          63.2101   90.6335   10.0008 C.ar    1  UNL1       -0.0003
     17 C          62.4846   89.3269    9.8724 C.ar    1  UNL1       -0.0026
     18 C          64.6523   92.2780   11.4028 C.ar    1  UNL1        0.0001
     19 C          65.3299   92.6362   12.6922 C.ar    1  UNL1        0.0009
     20 C          66.0553   93.9428   12.8206 C.ar    1  UNL1        0.0114
     21 C          66.1032   94.8913   11.6595 C.ar    1  UNL1        0.0577
     22 CL         66.8286   96.1979   11.7879 Cl      1  UNL1       -0.0822
     23 C          65.4256   94.5331   10.3700 C.ar    1  UNL1        0.0114
     24 C          64.7001   93.2265   10.2417 C.ar    1  UNL1        0.0009
     25 C          63.9893   83.8457   11.5675 C.3     1  UNL1        0.1931
     26 N          63.6557   82.6100   12.3497 N.ar    1  UNL1       -0.3030
     27 C          63.7463   82.6229   13.8468 C.ar    1  UNL1        0.1747
     28 N          63.4126   81.3872   14.6290 N.ar    1  UNL1       -0.1847
     29 C          62.9884   80.1387   13.9141 C.ar    1  UNL1        0.2779
     30 O          62.6548   78.9031   14.6963 O.2     1  UNL1       -0.2654
     31 C          62.8978   80.1258   12.4168 C.ar    1  UNL1        0.0474
     32 C          63.2315   81.3615   11.6346 C.ar    1  UNL1        0.0399
     33 C          63.1409   81.3486   10.1374 C.3     1  UNL1        0.0437
     34 C          62.7167   80.1001    9.4224 C.3     1  UNL1        0.0066
     35 C          62.3830   78.8645   10.2047 C.3     1  UNL1        0.0053
     36 C          62.4736   78.8773   11.7018 C.3     1  UNL1        0.0324
     37 S          64.1705   83.8714   14.5619 S.3     1  UNL1       -0.0724
     38 C          63.4614   84.2967   15.8134 C.3     1  UNL1        0.0913
     39 C          63.3997   85.7489   16.1838 C.ar    1  UNL1       -0.0108
     40 C          64.0555   86.7749   15.3078 C.ar    1  UNL1       -0.0011
     41 C          63.9937   88.2271   15.6782 C.ar    1  UNL1        0.0293
     42 C          63.2762   88.6534   16.9246 C.ar    1  UNL1        0.1401
     43 F          63.2145   90.1056   17.2950 F       1  UNL1       -0.2042
     44 C          62.6205   87.6275   17.8006 C.ar    1  UNL1        0.0293
     45 C          62.6822   86.1752   17.4302 C.ar    1  UNL1       -0.0011
@<TRIPOS>BOND
     1     7     8    1
     2     8     6    1
     3     6     9    1
     4     9    10    1
     5     6     5    1
     6     5     4    1
     7     4     1    1
     8     1    11    1
     9    11    12    1
    10    12    13   ar
    11    13    14   ar
    12    14    15   ar
    13    15    18    1
    14    18    19   ar
    15    19    20   ar
    16    20    21   ar
    17    21    22    1
    18    21    23   ar
    19    23    24   ar
    20    15    16   ar
    21    16    17   ar
    22     1     2   am
    23     2     3    2
    24     2    25    1
    25    25    26    1
    26    26    27   ar
    27    27    37    1
    28    37    38    1
    29    38    39    1
    30    39    40   ar
    31    40    41   ar
    32    41    42   ar
    33    42    43    1
    34    42    44   ar
    35    44    45   ar
    36    27    28   ar
    37    28    29   ar
    38    29    30    2
    39    29    31   ar
    40    31    32   ar
    41    32    33    1
    42    33    34    1
    43    34    35    1
    44    35    36    1
    45    17    12   ar
    46    32    26   ar
    47    24    18   ar
    48    45    39   ar
    49    36    31    1
@<TRIPOS>MOLECULE
*****
 45 49 0 0 0
SMALL
GASTEIGER

@<TRIPOS>ATOM
      1 N          61.0831   87.1589   10.8396 N.am    1  UNL1       -0.2724
      2 C          61.5517   88.0881   11.9198 C.2     1  UNL1        0.2491
      3 O          60.7311   89.2901   12.2833 O.2     1  UNL1       -0.2727
      4 C          61.9036   85.9570   10.4760 C.3     1  UNL1        0.1111
      5 C          62.7810   85.9878    9.2598 C.3     1  UNL1        0.0939
      6 N          63.1810   84.7062    8.5909 N.3     1  UNL1       -0.2712
      7 C          63.4557   82.8016   10.3365 C.3     1  UNL1        0.0188
      8 C          64.0527   83.7229    9.3144 C.3     1  UNL1        0.0722
      9 C          62.7094   84.4078    7.1986 C.3     1  UNL1        0.0722
     10 C          61.4406   85.0240    6.6884 C.3     1  UNL1        0.0188
     11 C          59.7938   87.4315   10.1229 C.3     1  UNL1        0.1202
     12 C          59.7830   88.3091    8.9065 C.ar    1  UNL1       -0.0023
     13 C          59.0651   87.8640    7.6669 C.ar    1  UNL1       -0.0026
     14 C          59.0543   88.7416    6.4505 C.ar    1  UNL1       -0.0003
     15 C          59.7613   90.0643    6.4736 C.ar    1  UNL1       -0.0000
     16 C          60.4792   90.5095    7.7132 C.ar    1  UNL1       -0.0003
     17 C          60.4900   89.6319    8.9297 C.ar    1  UNL1       -0.0026
     18 C          59.7504   90.9419    5.2572 C.ar    1  UNL1        0.0001
     19 C          61.0390   91.2937    4.5747 C.ar    1  UNL1        0.0009
     20 C          61.0281   92.1713    3.3583 C.ar    1  UNL1        0.0114
     21 C          59.7288   92.6971    2.8244 C.ar    1  UNL1        0.0577
     22 CL         59.7179   93.5747    1.6079 Cl      1  UNL1       -0.0822
     23 C          58.4401   92.3454    3.5069 C.ar    1  UNL1        0.0114
     24 C          58.4510   91.4678    4.7233 C.ar    1  UNL1        0.0009
     25 C          62.8409   87.8155   12.6364 C.3     1  UNL1        0.1931
     26 N          63.6482   88.9536   13.1870 N.ar    1  UNL1       -0.3030
     27 C          64.1838   88.8852   14.5863 C.ar    1  UNL1        0.1747
     28 N          64.9911   90.0233   15.1369 N.ar    1  UNL1       -0.1847
     29 C          65.2626   91.2298   14.2881 C.ar    1  UNL1        0.2779
     30 O          66.0698   92.3679   14.8387 O.2     1  UNL1       -0.2654
     31 C          64.7269   91.2983   12.8887 C.ar    1  UNL1        0.0474
     32 C          63.9197   90.1602   12.3381 C.ar    1  UNL1        0.0399
     33 C          63.3840   90.2287   10.9387 C.3     1  UNL1        0.0437
     34 C          63.6555   91.4352   10.0899 C.3     1  UNL1        0.0066
     35 C          64.4627   92.5733   10.6405 C.3     1  UNL1        0.0053
     36 C          64.9984   92.5048   12.0399 C.3     1  UNL1        0.0324
     37 S          63.9123   87.6786   15.4352 S.3     1  UNL1       -0.0724
     38 C          64.7771   86.4600   15.3050 C.3     1  UNL1        0.0913
     39 C          64.1638   85.1407   14.9400 C.ar    1  UNL1       -0.0108
     40 C          62.8747   84.7113   15.5756 C.ar    1  UNL1       -0.0011
     41 C          62.2614   83.3921   15.2105 C.ar    1  UNL1        0.0293
     42 C          62.9372   82.5021   14.2099 C.ar    1  UNL1        0.1401
     43 F          62.3239   81.1828   13.8448 F       1  UNL1       -0.2042
     44 C          64.2262   82.9314   13.5743 C.ar    1  UNL1        0.0293
     45 C          64.8396   84.2507   13.9393 C.ar    1  UNL1       -0.0011
@<TRIPOS>BOND
     1     7     8    1
     2     8     6    1
     3     6     9    1
     4     9    10    1
     5     6     5    1
     6     5     4    1
     7     4     1    1
     8     1    11    1
     9    11    12    1
    10    12    13   ar
    11    13    14   ar
    12    14    15   ar
    13    15    18    1
    14    18    19   ar
    15    19    20   ar
    16    20    21   ar
    17    21    22    1
    18    21    23   ar
    19    23    24   ar
    20    15    16   ar
    21    16    17   ar
    22     1     2   am
    23     2     3    2
    24     2    25    1
    25    25    26    1
    26    26    27   ar
    27    27    37    1
    28    37    38    1
    29    38    39    1
    30    39    40   ar
    31    40    41   ar
    32    41    42   ar
    33    42    43    1
    34    42    44   ar
    35    44    45   ar
    36    27    28   ar
    37    28    29   ar
    38    29    30    2
    39    29    31   ar
    40    31    32   ar
    41    32    33    1
    42    33    34    1
    43    34    35    1
    44    35    36    1
    45    17    12   ar
    46    32    26   ar
    47    24    18   ar
    48    45    39   ar
    49    36    31    1
@<TRIPOS>MOLECULE
*****
 45 49 0 0 0
SMALL
GASTEIGER

@<TRIPOS>ATOM
      1 N          64.0070   88.8220   14.5544 N.am    1  UNL1       -0.2724
      2 C          63.7576   88.4921   13.1126 C.2     1  UNL1        0.2491
      3 O          64.1023   89.4877   12.0449 O.2     1  UNL1       -0.2727
      4 C          63.6624   87.8264   15.6221 C.3     1  UNL1        0.1111
      5 C          63.9716   86.3726   15.4200 C.3     1  UNL1        0.0939
      6 N          63.0694   85.3258   16.0034 N.3     1  UNL1       -0.2712
      7 C          62.6457   86.5439   18.2588 C.3     1  UNL1        0.0188
      8 C          62.1548   85.6731   17.1405 C.3     1  UNL1        0.0722
      9 C          63.0818   83.9318   15.4498 C.3     1  UNL1        0.0722
     10 C          64.3864   83.2597   15.1396 C.3     1  UNL1        0.0188
     11 C          64.6011   90.1476   14.9286 C.3     1  UNL1        0.1202
     12 C          65.0309   91.1059   13.8576 C.ar    1  UNL1       -0.0023
     13 C          64.0197   91.6638   12.9005 C.ar    1  UNL1       -0.0026
     14 C          64.4495   92.6221   11.8295 C.ar    1  UNL1       -0.0003
     15 C          65.8905   93.0225   11.7157 C.ar    1  UNL1       -0.0000
     16 C          66.9019   92.4646   12.6729 C.ar    1  UNL1       -0.0003
     17 C          66.4721   91.5063   13.7438 C.ar    1  UNL1       -0.0026
     18 C          66.3203   93.9808   10.6448 C.ar    1  UNL1        0.0001
     19 C          65.6713   95.3291   10.5403 C.ar    1  UNL1        0.0009
     20 C          66.1011   96.2874    9.4693 C.ar    1  UNL1        0.0114
     21 C          67.1799   95.8974    8.5029 C.ar    1  UNL1        0.0577
     22 CL         67.6097   96.8557    7.4319 Cl      1  UNL1       -0.0822
     23 C          67.8290   94.5491    8.6074 C.ar    1  UNL1        0.0114
     24 C          67.3992   93.5908    9.6783 C.ar    1  UNL1        0.0009
     25 C          63.1635   87.1666   12.7384 C.3     1  UNL1        0.1931
     26 N          62.4066   87.0203   11.4517 N.ar    1  UNL1       -0.3030
     27 C          62.5065   85.7482   10.6632 C.ar    1  UNL1        0.1747
     28 N          61.7496   85.6020    9.3765 N.ar    1  UNL1       -0.1847
     29 C          60.8927   86.7278    8.8783 C.ar    1  UNL1        0.2779
     30 O          60.1357   86.5815    7.5916 O.2     1  UNL1       -0.2654
     31 C          60.7927   87.9999    9.6668 C.ar    1  UNL1        0.0474
     32 C          61.5496   88.1462   10.9535 C.ar    1  UNL1        0.0399
     33 C          61.4497   89.4182   11.7421 C.3     1  UNL1        0.0437
     34 C          60.5927   90.5440   11.2439 C.3     1  UNL1        0.0066
     35 C          59.8358   90.3978    9.9572 C.3     1  UNL1        0.0053
     36 C          59.9358   89.1257    9.1686 C.3     1  UNL1        0.0324
     37 S          63.3635   84.6224   11.1613 S.3     1  UNL1       -0.0724
     38 C          62.8019   83.6242   12.1300 C.3     1  UNL1        0.0913
     39 C          62.8026   82.1640   11.7870 C.ar    1  UNL1       -0.0108
     40 C          62.4245   81.1495   12.8252 C.ar    1  UNL1       -0.0011
     41 C          62.4251   79.6893   12.4823 C.ar    1  UNL1        0.0293
     42 C          62.8039   79.2434   11.1010 C.ar    1  UNL1        0.1401
     43 F          62.8046   77.7832   10.7581 F       1  UNL1       -0.2042
     44 C          63.1820   80.2578   10.0628 C.ar    1  UNL1        0.0293
     45 C          63.1814   81.7182   10.4058 C.ar    1  UNL1       -0.0011
@<TRIPOS>BOND
     1     7     8    1
     2     8     6    1
     3     6     9    1
     4     9    10    1
     5     6     5    1
     6     5     4    1
     7     4     1    1
     8     1    11    1
     9    11    12    1
    10    12    13   ar
    11    13    14   ar
    12    14    15   ar
    13    15    18    1
    14    18    19   ar
    15    19    20   ar
    16    20    21   ar
    17    21    22    1
    18    21    23   ar
    19    23    24   ar
    20    15    16   ar
    21    16    17   ar
    22     1     2   am
    23     2     3    2
    24     2    25    1
    25    25    26    1
    26    26    27   ar
    27    27    37    1
    28    37    38    1
    29    38    39    1
    30    39    40   ar
    31    40    41   ar
    32    41    42   ar
    33    42    43    1
    34    42    44   ar
    35    44    45   ar
    36    27    28   ar
    37    28    29   ar
    38    29    30    2
    39    29    31   ar
    40    31    32   ar
    41    32    33    1
    42    33    34    1
    43    34    35    1
    44    35    36    1
    45    17    12   ar
    46    32    26   ar
    47    24    18   ar
    48    45    39   ar
    49    36    31    1
@<TRIPOS>MOLECULE
*****
 45 49 0 0 0
SMALL
GASTEIGER

@<TRIPOS>ATOM
      1 N          61.4990   87.0685   11.2185 N.am    1  UNL1       -0.2724
      2 C          62.0872   88.2255   11.9705 C.2     1  UNL1        0.2491
      3 O          61.3634   89.5387   12.0123 O.2     1  UNL1       -0.2727
      4 C          62.2228   85.7553   11.1767 C.3     1  UNL1        0.1111
      5 C          61.9580   84.7882   10.0612 C.3     1  UNL1        0.0939
      6 N          63.0764   84.3616    9.1571 N.3     1  UNL1       -0.2712
      7 C          61.8000   85.1038    7.0193 C.3     1  UNL1        0.0188
      8 C          63.0895   84.7994    7.7224 C.3     1  UNL1        0.0722
      9 C          64.1816   83.4974    9.6876 C.3     1  UNL1        0.0722
     10 C          63.8561   82.2328   10.4257 C.3     1  UNL1        0.0188
     11 C          60.1870   87.2247   10.5084 C.3     1  UNL1        0.1202
     12 C          60.0938   88.0905    9.2870 C.ar    1  UNL1       -0.0023
     13 C          59.4008   87.5815    8.0579 C.ar    1  UNL1       -0.0026
     14 C          59.3076   88.4473    6.8366 C.ar    1  UNL1       -0.0003
     15 C          59.9073   89.8222    6.8444 C.ar    1  UNL1       -0.0000
     16 C          60.6002   90.3313    8.0735 C.ar    1  UNL1       -0.0003
     17 C          60.6935   89.4655    9.2948 C.ar    1  UNL1       -0.0026
     18 C          59.8140   90.6880    5.6230 C.ar    1  UNL1        0.0001
     19 C          61.0483   91.0033    4.8312 C.ar    1  UNL1        0.0009
     20 C          60.9550   91.8691    3.6098 C.ar    1  UNL1        0.0114
     21 C          59.6275   92.4196    3.1803 C.ar    1  UNL1        0.0577
     22 CL         59.5342   93.2854    1.9590 Cl      1  UNL1       -0.0822
     23 C          58.3931   92.1043    3.9722 C.ar    1  UNL1        0.0114
     24 C          58.4864   91.2385    5.1935 C.ar    1  UNL1        0.0009
     25 C          63.3992   88.0693   12.6807 C.3     1  UNL1        0.1931
     26 N          63.4280   87.6349   14.1161 N.ar    1  UNL1       -0.3030
     27 C          63.3243   88.6553   15.2107 C.ar    1  UNL1        0.1747
     28 N          63.3531   88.2209   16.6461 N.ar    1  UNL1       -0.1847
     29 C          63.4855   86.7662   16.9870 C.ar    1  UNL1        0.2779
     30 O          63.5143   86.3318   18.4225 O.2     1  UNL1       -0.2654
     31 C          63.5891   85.7458   15.8924 C.ar    1  UNL1        0.0474
     32 C          63.5604   86.1801   14.4570 C.ar    1  UNL1        0.0399
     33 C          63.6640   85.1598   13.3624 C.3     1  UNL1        0.0437
     34 C          63.7964   83.7051   13.7033 C.3     1  UNL1        0.0066
     35 C          63.8252   83.2707   15.1387 C.3     1  UNL1        0.0053
     36 C          63.7215   84.2910   16.2333 C.3     1  UNL1        0.0324
     37 S          63.1919   90.1101   14.8698 S.3     1  UNL1       -0.0724
     38 C          64.3892   91.0104   14.9467 C.3     1  UNL1        0.0913
     39 C          65.0391   91.5031   13.6878 C.ar    1  UNL1       -0.0108
     40 C          66.4947   91.8655   13.6874 C.ar    1  UNL1       -0.0011
     41 C          67.1446   92.3582   12.4285 C.ar    1  UNL1        0.0293
     42 C          66.3389   92.4885   11.1700 C.ar    1  UNL1        0.1401
     43 F          66.9888   92.9813    9.9111 F       1  UNL1       -0.2042
     44 C          64.8834   92.1261   11.1703 C.ar    1  UNL1        0.0293
     45 C          64.2334   91.6334   12.4292 C.ar    1  UNL1       -0.0011
@<TRIPOS>BOND
     1     7     8    1
     2     8     6    1
     3     6     9    1
     4     9    10    1
     5     6     5    1
     6     5     4    1
     7     4     1    1
     8     1    11    1
     9    11    12    1
    10    12    13   ar
    11    13    14   ar
    12    14    15   ar
    13    15    18    1
    14    18    19   ar
    15    19    20   ar
    16    20    21   ar
    17    21    22    1
    18    21    23   ar
    19    23    24   ar
    20    15    16   ar
    21    16    17   ar
    22     1     2   am
    23     2     3    2
    24     2    25    1
    25    25    26    1
    26    26    27   ar
    27    27    37    1
    28    37    38    1
    29    38    39    1
    30    39    40   ar
    31    40    41   ar
    32    41    42   ar
    33    42    43    1
    34    42    44   ar
    35    44    45   ar
    36    27    28   ar
    37    28    29   ar
    38    29    30    2
    39    29    31   ar
    40    31    32   ar
    41    32    33    1
    42    33    34    1
    43    34    35    1
    44    35    36    1
    45    17    12   ar
    46    32    26   ar
    47    24    18   ar
    48    45    39   ar
    49    36    31    1
