@<TRIPOS>MOLECULE
*****
 46 50 0 0 0
SMALL
GASTEIGER

@<TRIPOS>ATOM
      1 C          61.3333   87.8525    9.7066 C.3     1  UNL1        0.1934
      2 N          62.1684   88.2944   10.8717 N.ar    1  UNL1       -0.2979
      3 C          62.5166   89.7439   11.0380 C.ar    1  UNL1        0.0786
      4 C          63.3517   90.1858   12.2031 C.ar    1  UNL1        0.0574
      5 C          63.8385   89.1781   13.2019 C.ar    1  UNL1        0.2786
      6 O          64.6735   89.6200   14.3670 O.2     1  UNL1       -0.2654
      7 N          63.4902   87.7286   13.0356 N.ar    1  UNL1       -0.1847
      8 C          62.6552   87.2868   11.8705 C.ar    1  UNL1        0.1750
      9 C          63.6999   91.6353   12.3693 C.3     1  UNL1        0.0622
     10 C          65.0503   92.1352   11.9489 C.ar    1  UNL1        0.0220
     11 C          66.2377   92.3271   12.8451 C.ar    1  UNL1        0.1177
     12 N          67.3715   92.8415   12.0085 N.ar    1  UNL1       -0.1679
     13 N          66.8848   92.9676   10.5952 N.ar    1  UNL1       -0.2477
     14 C          67.6912   93.4461    9.4244 C.3     1  UNL1        0.1537
     15 C          65.4502   92.5311   10.5584 C.ar    1  UNL1        0.0927
     16 S          62.3069   85.8373   11.7043 S.3     1  UNL1       -0.0724
     17 C          62.7311   84.8402   12.7416 C.3     1  UNL1        0.0913
     18 C          62.7414   83.3763   12.4149 C.ar    1  UNL1       -0.0108
     19 C          63.2078   82.9120   11.0670 C.ar    1  UNL1       -0.0011
     20 C          63.2181   81.4480   10.7402 C.ar    1  UNL1        0.0293
     21 C          62.7620   80.4484   11.7613 C.ar    1  UNL1        0.1401
     22 F          62.7723   78.9845   11.4346 F       1  UNL1       -0.2042
     23 C          62.2956   80.9128   13.1093 C.ar    1  UNL1        0.0293
     24 C          62.2853   82.3767   13.4360 C.ar    1  UNL1       -0.0011
     25 N          59.6919   88.4380    7.7797 N.am    1  UNL1       -0.2724
     26 C          60.3863   88.8158    9.0545 C.2     1  UNL1        0.2491
     27 O          60.1336   90.1568    9.6772 O.2     1  UNL1       -0.2727
     28 C          59.9447   87.0969    7.1570 C.3     1  UNL1        0.1111
     29 C          60.5794   86.0031    7.9636 C.3     1  UNL1        0.0939
     30 C          61.5696   84.4713    6.1135 C.3     1  UNL1        0.0897
     31 N          61.7322   85.2272    7.3989 N.3     1  UNL1       -0.2688
     32 C          63.0475   85.2071    8.1196 C.3     1  UNL1        0.0897
     33 C          58.7449   89.4012    7.1276 C.3     1  UNL1        0.1202
     34 C          59.2219   90.2823    6.0112 C.ar    1  UNL1       -0.0023
     35 C          58.2482   91.1552    5.2764 C.ar    1  UNL1       -0.0026
     36 C          58.7252   92.0363    4.1601 C.ar    1  UNL1       -0.0003
     37 C          60.1758   92.0445    3.7786 C.ar    1  UNL1       -0.0000
     38 C          61.1495   91.1716    4.5134 C.ar    1  UNL1       -0.0003
     39 C          60.6725   90.2906    5.6297 C.ar    1  UNL1       -0.0026
     40 C          60.6528   92.9256    2.6623 C.ar    1  UNL1        0.0001
     41 C          62.1001   92.9201    2.2685 C.ar    1  UNL1        0.0009
     42 C          62.5771   93.8012    1.1521 C.ar    1  UNL1        0.0114
     43 C          61.6066   94.6879    0.4296 C.ar    1  UNL1        0.0577
     44 CL         62.0835   95.5690   -0.6867 Cl      1  UNL1       -0.0822
     45 C          60.1592   94.6934    0.8234 C.ar    1  UNL1        0.0114
     46 C          59.6823   93.8123    1.9397 C.ar    1  UNL1        0.0009
@<TRIPOS>BOND
     1    30    31    1
     2    31    32    1
     3    31    29    1
     4    29    28    1
     5    28    25    1
     6    25    33    1
     7    33    34    1
     8    34    35   ar
     9    35    36   ar
    10    36    37   ar
    11    37    40    1
    12    40    41   ar
    13    41    42   ar
    14    42    43   ar
    15    43    44    1
    16    43    45   ar
    17    45    46   ar
    18    37    38   ar
    19    38    39   ar
    20    25    26   am
    21    26    27    2
    22    26     1    1
    23     1     2    1
    24     2     3   ar
    25     3     4   ar
    26     4     9    1
    27     9    10    1
    28    10    11   ar
    29    11    12   ar
    30    12    13   ar
    31    13    14    1
    32    13    15   ar
    33     4     5   ar
    34     5     6    2
    35     5     7   ar
    36     7     8   ar
    37     8    16    1
    38    16    17    1
    39    17    18    1
    40    18    19   ar
    41    19    20   ar
    42    20    21   ar
    43    21    22    1
    44    21    23   ar
    45    23    24   ar
    46    39    34   ar
    47     8     2   ar
    48    24    18   ar
    49    46    40   ar
    50    15    10   ar
@<TRIPOS>MOLECULE
*****
 46 50 0 0 0
SMALL
GASTEIGER

@<TRIPOS>ATOM
      1 C          62.6436   85.9651   11.7802 C.3     1  UNL1        0.1934
      2 N          62.2703   85.6602   10.3597 N.ar    1  UNL1       -0.2979
      3 C          61.0496   86.2871    9.7539 C.ar    1  UNL1        0.0786
      4 C          60.6763   85.9822    8.3335 C.ar    1  UNL1        0.0574
      5 C          61.5238   85.0504    7.5188 C.ar    1  UNL1        0.2786
      6 O          61.1505   84.7455    6.0983 O.2     1  UNL1       -0.2654
      7 N          62.7444   84.4236    8.1246 N.ar    1  UNL1       -0.1847
      8 C          63.1177   84.7285    9.5450 C.ar    1  UNL1        0.1750
      9 C          59.4557   86.6091    7.7277 C.3     1  UNL1        0.0622
     10 C          59.4272   88.0836    7.4536 C.ar    1  UNL1        0.0220
     11 C          59.8988   89.1624    8.3830 C.ar    1  UNL1        0.1177
     12 N          59.6853   90.4837    7.7058 N.ar    1  UNL1       -0.1679
     13 N          59.0817   90.2215    6.3578 N.ar    1  UNL1       -0.2477
     14 C          58.7039   91.2602    5.3437 C.3     1  UNL1        0.1537
     15 C          58.9222   88.7381    6.2020 C.ar    1  UNL1        0.0927
     16 S          64.3383   84.1016   10.1508 S.3     1  UNL1       -0.0724
     17 C          64.3617   82.6294   10.4374 C.3     1  UNL1        0.0913
     18 C          63.4886   82.0615   11.5168 C.ar    1  UNL1       -0.0108
     19 C          63.0169   82.9382   12.6387 C.ar    1  UNL1       -0.0011
     20 C          62.1438   82.3703   13.7182 C.ar    1  UNL1        0.0293
     21 C          61.7423   80.9257   13.6757 C.ar    1  UNL1        0.1401
     22 F          60.8692   80.3578   14.7550 F       1  UNL1       -0.2042
     23 C          62.2141   80.0489   12.5536 C.ar    1  UNL1        0.0293
     24 C          63.0872   80.6168   11.4743 C.ar    1  UNL1       -0.0011
     25 N          63.4961   87.7852   13.4266 N.am    1  UNL1       -0.2724
     26 C          62.6271   87.3820   12.2724 C.2     1  UNL1        0.2491
     27 O          61.7416   88.3957   11.6104 O.2     1  UNL1       -0.2727
     28 C          64.3817   86.7714   14.0886 C.3     1  UNL1        0.1111
     29 C          64.4318   86.6827   15.5851 C.3     1  UNL1        0.0939
     30 C          62.6904   87.0585   17.4763 C.3     1  UNL1        0.0897
     31 N          63.2255   86.2246   16.3500 N.3     1  UNL1       -0.2688
     32 C          62.5543   84.9328   15.9887 C.3     1  UNL1        0.0897
     33 C          63.4796   89.2020   13.9188 C.3     1  UNL1        0.1202
     34 C          64.1125   90.2879   13.1000 C.ar    1  UNL1       -0.0023
     35 C          65.2937   91.0404   13.6369 C.ar    1  UNL1       -0.0026
     36 C          65.9265   92.1262   12.8181 C.ar    1  UNL1       -0.0003
     37 C          65.3780   92.4595   11.4623 C.ar    1  UNL1       -0.0000
     38 C          64.1968   91.7070   10.9254 C.ar    1  UNL1       -0.0003
     39 C          63.5640   90.6212   11.7442 C.ar    1  UNL1       -0.0026
     40 C          66.0109   93.5454   10.6435 C.ar    1  UNL1        0.0001
     41 C          65.4503   94.9362   10.6807 C.ar    1  UNL1        0.0009
     42 C          66.0832   96.0221    9.8618 C.ar    1  UNL1        0.0114
     43 C          67.2766   95.7171    9.0058 C.ar    1  UNL1        0.0577
     44 CL         67.9094   96.8029    8.1870 Cl      1  UNL1       -0.0822
     45 C          67.8371   94.3262    8.9686 C.ar    1  UNL1        0.0114
     46 C          67.2043   93.2404    9.7874 C.ar    1  UNL1        0.0009
@<TRIPOS>BOND
     1    30    31    1
     2    31    32    1
     3    31    29    1
     4    29    28    1
     5    28    25    1
     6    25    33    1
     7    33    34    1
     8    34    35   ar
     9    35    36   ar
    10    36    37   ar
    11    37    40    1
    12    40    41   ar
    13    41    42   ar
    14    42    43   ar
    15    43    44    1
    16    43    45   ar
    17    45    46   ar
    18    37    38   ar
    19    38    39   ar
    20    25    26   am
    21    26    27    2
    22    26     1    1
    23     1     2    1
    24     2     3   ar
    25     3     4   ar
    26     4     9    1
    27     9    10    1
    28    10    11   ar
    29    11    12   ar
    30    12    13   ar
    31    13    14    1
    32    13    15   ar
    33     4     5   ar
    34     5     6    2
    35     5     7   ar
    36     7     8   ar
    37     8    16    1
    38    16    17    1
    39    17    18    1
    40    18    19   ar
    41    19    20   ar
    42    20    21   ar
    43    21    22    1
    44    21    23   ar
    45    23    24   ar
    46    39    34   ar
    47     8     2   ar
    48    24    18   ar
    49    46    40   ar
    50    15    10   ar
@<TRIPOS>MOLECULE
*****
 46 50 0 0 0
SMALL
GASTEIGER

@<TRIPOS>ATOM
      1 C          63.5288   89.6890   13.5658 C.3     1  UNL1        0.1934
      2 N          62.8045   89.8314   12.2601 N.ar    1  UNL1       -0.2979
      3 C          61.7656   88.8240   11.8650 C.ar    1  UNL1        0.0786
      4 C          61.0412   88.9664   10.5592 C.ar    1  UNL1        0.0574
      5 C          61.3558   90.1161    9.6485 C.ar    1  UNL1        0.2786
      6 O          60.6315   90.2584    8.3427 O.2     1  UNL1       -0.2654
      7 N          62.3947   91.1233   10.0436 N.ar    1  UNL1       -0.1847
      8 C          63.1191   90.9809   11.3493 C.ar    1  UNL1        0.1750
      9 C          60.0023   87.9592   10.1642 C.3     1  UNL1        0.0622
     10 C          60.2617   87.0230    9.0211 C.ar    1  UNL1        0.0220
     11 C          59.2608   86.5909    7.9909 C.ar    1  UNL1        0.1177
     12 N          59.9480   85.6555    7.0407 N.ar    1  UNL1       -0.1679
     13 N          61.3737   85.5096    7.4837 N.ar    1  UNL1       -0.2477
     14 C          62.4215   84.6665    6.8194 C.3     1  UNL1        0.1537
     15 C          61.5675   86.3548    8.7077 C.ar    1  UNL1        0.0927
     16 S          64.1579   91.9882   11.7444 S.3     1  UNL1       -0.0724
     17 C          65.5306   91.9253   11.1427 C.3     1  UNL1        0.0913
     18 C          66.1472   93.1579   10.5507 C.ar    1  UNL1       -0.0108
     19 C          67.3511   93.0423    9.6636 C.ar    1  UNL1       -0.0011
     20 C          67.9678   94.2749    9.0716 C.ar    1  UNL1        0.0293
     21 C          67.3804   95.6232    9.3667 C.ar    1  UNL1        0.1401
     22 F          67.9969   96.8558    8.7747 F       1  UNL1       -0.2042
     23 C          66.1763   95.7388   10.2539 C.ar    1  UNL1        0.0293
     24 C          65.5598   94.5062   10.8459 C.ar    1  UNL1       -0.0011
     25 N          63.7062   88.1700   15.6662 N.am    1  UNL1       -0.2724
     26 C          63.7172   88.3312   14.1749 C.2     1  UNL1        0.2491
     27 O          63.9165   87.1346   13.2927 O.2     1  UNL1       -0.2727
     28 C          63.5068   89.3667   16.5484 C.3     1  UNL1        0.1111
     29 C          63.4677   90.7415   15.9499 C.3     1  UNL1        0.0939
     30 C          65.7845   91.5763   15.1220 C.3     1  UNL1        0.0897
     31 N          64.6468   91.6571   16.0963 N.3     1  UNL1       -0.2688
     32 C          64.6882   92.6533   17.2168 C.3     1  UNL1        0.0897
     33 C          63.8945   86.8123   16.2752 C.3     1  UNL1        0.1202
     34 C          63.7092   85.5820   15.4372 C.ar    1  UNL1       -0.0023
     35 C          62.4012   84.8483   15.4612 C.ar    1  UNL1       -0.0026
     36 C          62.2159   83.6181   14.6231 C.ar    1  UNL1       -0.0003
     37 C          63.3386   83.1217   13.7611 C.ar    1  UNL1       -0.0000
     38 C          64.6466   83.8554   13.7371 C.ar    1  UNL1       -0.0003
     39 C          64.8319   85.0856   14.5752 C.ar    1  UNL1       -0.0026
     40 C          63.1532   81.8915   12.9231 C.ar    1  UNL1        0.0001
     41 C          62.7023   80.6107   13.5605 C.ar    1  UNL1        0.0009
     42 C          62.5170   79.3805   12.7224 C.ar    1  UNL1        0.0114
     43 C          62.7825   79.4311   11.2470 C.ar    1  UNL1        0.0577
     44 CL         62.5972   78.2009   10.4090 Cl      1  UNL1       -0.0822
     45 C          63.2335   80.7119   10.6096 C.ar    1  UNL1        0.0114
     46 C          63.4188   81.9421   11.4477 C.ar    1  UNL1        0.0009
@<TRIPOS>BOND
     1    30    31    1
     2    31    32    1
     3    31    29    1
     4    29    28    1
     5    28    25    1
     6    25    33    1
     7    33    34    1
     8    34    35   ar
     9    35    36   ar
    10    36    37   ar
    11    37    40    1
    12    40    41   ar
    13    41    42   ar
    14    42    43   ar
    15    43    44    1
    16    43    45   ar
    17    45    46   ar
    18    37    38   ar
    19    38    39   ar
    20    25    26   am
    21    26    27    2
    22    26     1    1
    23     1     2    1
    24     2     3   ar
    25     3     4   ar
    26     4     9    1
    27     9    10    1
    28    10    11   ar
    29    11    12   ar
    30    12    13   ar
    31    13    14    1
    32    13    15   ar
    33     4     5   ar
    34     5     6    2
    35     5     7   ar
    36     7     8   ar
    37     8    16    1
    38    16    17    1
    39    17    18    1
    40    18    19   ar
    41    19    20   ar
    42    20    21   ar
    43    21    22    1
    44    21    23   ar
    45    23    24   ar
    46    39    34   ar
    47     8     2   ar
    48    24    18   ar
    49    46    40   ar
    50    15    10   ar
