@<TRIPOS>MOLECULE
*****
 39 43 0 0 0
SMALL
GASTEIGER

@<TRIPOS>ATOM
      1 C          63.8675   84.5212   13.9469 C.2     1  UNL1        0.2685
      2 O          65.0488   84.8395   14.8148 O.2     1  UNL1       -0.2682
      3 N          63.1228   85.6266   13.2588 N.am    1  UNL1       -0.2723
      4 C          63.5595   87.0504   13.4385 C.3     1  UNL1        0.0761
      5 C          64.3664   87.5873   14.5833 C.3     1  UNL1        0.0213
      6 C          64.5715   89.0559   14.3572 C.3     1  UNL1        0.0190
      7 C          65.1969   90.2954   14.9250 C.3     1  UNL1        0.0722
      8 N          64.9033   91.4323   13.9914 N.3     1  UNL1       -0.2704
      9 C          64.0964   90.8952   12.8466 C.3     1  UNL1        0.0722
     10 C          63.8913   89.4266   13.0727 C.3     1  UNL1        0.0190
     11 C          63.2659   88.1871   12.5049 C.3     1  UNL1        0.0213
     12 C          65.3399   92.8559   14.1711 C.3     1  UNL1        0.1063
     13 C          66.6497   93.3161   13.6030 C.3     1  UNL1        0.1486
     14 O          67.8431   93.4698   14.4987 O.3     1  UNL1       -0.3786
     15 H          68.6023   93.7728   13.9765 H       1  UNL1        0.2108
     16 C          66.7662   93.6227   12.1393 C.ar    1  UNL1        0.0056
     17 C          67.3472   92.6044   11.2036 C.ar    1  UNL1       -0.0019
     18 C          67.4636   92.9110    9.7399 C.ar    1  UNL1       -0.0002
     19 C          66.9990   94.2359    9.2118 C.ar    1  UNL1       -0.0000
     20 C          66.4180   95.2542   10.1475 C.ar    1  UNL1       -0.0002
     21 C          66.3016   94.9475   11.6112 C.ar    1  UNL1       -0.0019
     22 C          61.0429   80.0664   14.1868 C.3     1  UNL1        0.1321
     23 N          62.1325   81.0499   13.8774 N.ar    1  UNL1       -0.3057
     24 C          63.3851   80.7633   13.1036 C.ar    1  UNL1        0.1787
     25 N          64.1875   82.0289   13.0355 N.ar    1  UNL1       -0.2192
     26 C          63.4308   83.0975   13.7672 C.ar    1  UNL1        0.1535
     27 C          62.1607   82.4924   14.2875 C.ar    1  UNL1        0.1012
     28 C          61.9415   85.3083   12.3910 C.3     1  UNL1        0.1205
     29 C          62.0734   85.3563   10.8976 C.ar    1  UNL1        0.0007
     30 C          63.1888   84.6177   10.2190 C.ar    1  UNL1       -0.0024
     31 C          63.3206   84.6657    8.7256 C.ar    1  UNL1        0.0028
     32 C          62.3372   85.4522    7.9107 C.ar    1  UNL1        0.0372
     33 C          61.2217   86.1908    8.5892 C.ar    1  UNL1        0.1465
     34 C          61.0899   86.1428   10.0826 C.ar    1  UNL1        0.0346
     35 O          60.2382   86.9774    7.7744 O.3     1  UNL1       -0.4045
     36 C          59.9189   88.3947    8.1474 C.3     1  UNL1        0.5753
     37 F          59.5996   89.8122    8.5204 F       1  UNL1       -0.1328
     38 F          58.5998   88.2832    7.4420 F       1  UNL1       -0.1328
     39 F          61.2380   88.5063    8.8527 F       1  UNL1       -0.1328
@<TRIPOS>BOND
     1    22    23    1
     2    23    24   ar
     3    24    25   ar
     4    25    26   ar
     5    26     1    1
     6     1     2    2
     7     1     3   am
     8     3    28    1
     9    28    29    1
    10    29    30   ar
    11    30    31   ar
    12    31    32   ar
    13    32    33   ar
    14    33    35    1
    15    35    36    1
    16    36    37    1
    17    36    38    1
    18    36    39    1
    19    33    34   ar
    20     4     3    1
    21     4     5    1
    22     6     5    1
    23     6     7    1
    24     7     8    1
    25     8    12    1
    26    12    13    1
    27    13    14    1
    28    13    16    1
    29    16    17   ar
    30    17    18   ar
    31    18    19   ar
    32    19    20   ar
    33    20    21   ar
    34     8     9    1
    35    10     9    1
    36    10    11    1
    37    26    27   ar
    38    27    23   ar
    39    34    29   ar
    40    11     4    1
    41    10     6    1
    42    21    16   ar
    43    14    15    1
@<TRIPOS>MOLECULE
*****
 39 43 0 0 0
SMALL
GASTEIGER

@<TRIPOS>ATOM
      1 C          59.8362   88.0735    7.2657 C.2     1  UNL1        0.2685
      2 O          59.8867   86.7156    6.6307 O.2     1  UNL1       -0.2682
      3 N          60.4654   88.2973    8.6089 N.am    1  UNL1       -0.2723
      4 C          61.1451   87.1631    9.3171 C.3     1  UNL1        0.0761
      5 C          60.8535   86.6928   10.7113 C.3     1  UNL1        0.0213
      6 C          61.7639   85.5391   11.0112 C.3     1  UNL1        0.0190
      7 C          62.1464   84.5354   12.0582 C.3     1  UNL1        0.0722
      8 N          63.2371   83.6722   11.4965 N.3     1  UNL1       -0.2704
      9 C          63.5286   84.1425   10.1022 C.3     1  UNL1        0.0722
     10 C          62.6182   85.2963    9.8023 C.3     1  UNL1        0.0190
     11 C          62.2357   86.3000    8.7553 C.3     1  UNL1        0.0213
     12 C          63.9168   82.5381   12.2046 C.3     1  UNL1        0.1063
     13 C          63.7446   82.3672   13.6849 C.3     1  UNL1        0.1486
     14 O          63.6211   80.9923   14.2718 O.3     1  UNL1       -0.3786
     15 H          63.5168   81.0596   15.2338 H       1  UNL1        0.2108
     16 C          63.6960   83.5712   14.5783 C.ar    1  UNL1        0.0056
     17 C          62.5352   83.7694   15.5074 C.ar    1  UNL1       -0.0019
     18 C          62.4867   84.9733   16.4007 C.ar    1  UNL1       -0.0002
     19 C          63.5989   85.9791   16.3650 C.ar    1  UNL1       -0.0000
     20 C          64.7597   85.7809   15.4359 C.ar    1  UNL1       -0.0002
     21 C          64.8083   84.5769   14.5426 C.ar    1  UNL1       -0.0019
     22 C          59.0118   92.4389    4.4117 C.3     1  UNL1        0.1321
     23 N          58.7775   91.2143    5.2458 N.ar    1  UNL1       -0.3057
     24 C          57.4434   90.6923    5.6901 C.ar    1  UNL1        0.1787
     25 N          57.6776   89.4521    6.5009 N.ar    1  UNL1       -0.2192
     26 C          59.1565   89.2079    6.5576 C.ar    1  UNL1        0.1535
     27 C          59.8363   90.2969    5.7819 C.ar    1  UNL1        0.1012
     28 C          60.4148   89.6553    9.2439 C.3     1  UNL1        0.1205
     29 C          61.5330   90.1087   10.1349 C.ar    1  UNL1        0.0007
     30 C          62.6429   90.9494    9.5768 C.ar    1  UNL1       -0.0024
     31 C          63.7611   91.4028   10.4679 C.ar    1  UNL1        0.0028
     32 C          63.7696   91.0156   11.9170 C.ar    1  UNL1        0.0372
     33 C          62.6598   90.1748   12.4751 C.ar    1  UNL1        0.1465
     34 C          61.5415   89.7214   11.5841 C.ar    1  UNL1        0.0346
     35 O          62.6681   89.7875   13.9242 O.3     1  UNL1       -0.4045
     36 C          63.9338   89.2962   14.5619 C.3     1  UNL1        0.5753
     37 F          65.1996   88.8050   15.1997 F       1  UNL1       -0.1328
     38 F          64.0322   88.2113   13.5308 F       1  UNL1       -0.1328
     39 F          63.8354   90.3812   15.5930 F       1  UNL1       -0.1328
@<TRIPOS>BOND
     1    22    23    1
     2    23    24   ar
     3    24    25   ar
     4    25    26   ar
     5    26     1    1
     6     1     2    2
     7     1     3   am
     8     3    28    1
     9    28    29    1
    10    29    30   ar
    11    30    31   ar
    12    31    32   ar
    13    32    33   ar
    14    33    35    1
    15    35    36    1
    16    36    37    1
    17    36    38    1
    18    36    39    1
    19    33    34   ar
    20     4     3    1
    21     4     5    1
    22     6     5    1
    23     6     7    1
    24     7     8    1
    25     8    12    1
    26    12    13    1
    27    13    14    1
    28    13    16    1
    29    16    17   ar
    30    17    18   ar
    31    18    19   ar
    32    19    20   ar
    33    20    21   ar
    34     8     9    1
    35    10     9    1
    36    10    11    1
    37    26    27   ar
    38    27    23   ar
    39    34    29   ar
    40    11     4    1
    41    10     6    1
    42    21    16   ar
    43    14    15    1
@<TRIPOS>MOLECULE
*****
 39 43 0 0 0
SMALL
GASTEIGER

@<TRIPOS>ATOM
      1 C          59.9078   88.1681    7.2894 C.2     1  UNL1        0.2685
      2 O          59.8707   86.7889    6.7011 O.2     1  UNL1       -0.2682
      3 N          60.5814   88.4029    8.6089 N.am    1  UNL1       -0.2723
      4 C          61.2180   87.2583    9.3401 C.3     1  UNL1        0.0761
      5 C          60.8599   86.7834   10.7172 C.3     1  UNL1        0.0213
      6 C          61.7450   85.6193   11.0508 C.3     1  UNL1        0.0190
      7 C          62.0708   84.6063   12.1080 C.3     1  UNL1        0.0722
      8 N          63.1772   83.7356   11.5906 N.3     1  UNL1       -0.2704
      9 C          63.5353   84.2105   10.2135 C.3     1  UNL1        0.0722
     10 C          62.6502   85.3747    9.8799 C.3     1  UNL1        0.0190
     11 C          62.3244   86.3877    8.8227 C.3     1  UNL1        0.0213
     12 C          63.8138   82.5911   12.3218 C.3     1  UNL1        0.1063
     13 C          63.6937   82.4945   13.8138 C.3     1  UNL1        0.1486
     14 O          63.6028   81.1505   14.4735 O.3     1  UNL1       -0.3786
     15 H          63.5306   81.2659   15.4339 H       1  UNL1        0.2108
     16 C          63.6643   83.7420   14.6463 C.ar    1  UNL1        0.0056
     17 C          64.7429   84.7728   14.4912 C.ar    1  UNL1       -0.0019
     18 C          64.7135   86.0202   15.3236 C.ar    1  UNL1       -0.0002
     19 C          63.6055   86.2369   16.3113 C.ar    1  UNL1       -0.0000
     20 C          62.5269   85.2061   16.4664 C.ar    1  UNL1       -0.0002
     21 C          62.5563   83.9587   15.6339 C.ar    1  UNL1       -0.0019
     22 C          59.2455   92.4864    4.3237 C.3     1  UNL1        0.1321
     23 N          58.9667   91.2976    5.1951 N.ar    1  UNL1       -0.3057
     24 C          57.6163   90.8508    5.6711 C.ar    1  UNL1        0.1787
     25 N          57.8045   89.6240    6.5137 N.ar    1  UNL1       -0.2192
     26 C          59.2712   89.3128    6.5582 C.ar    1  UNL1        0.1535
     27 C          59.9895   90.3471    5.7433 C.ar    1  UNL1        0.1012
     28 C          60.6185   89.7822    9.1972 C.3     1  UNL1        0.1205
     29 C          61.6308   90.1212   10.2508 C.ar    1  UNL1        0.0007
     30 C          61.4085   89.6911   11.6705 C.ar    1  UNL1       -0.0024
     31 C          62.4209   90.0302   12.7242 C.ar    1  UNL1        0.0028
     32 C          63.6556   90.7993   12.3582 C.ar    1  UNL1        0.0372
     33 C          63.8780   91.2294   10.9384 C.ar    1  UNL1        0.1465
     34 C          62.8656   90.8904    9.8848 C.ar    1  UNL1        0.0346
     35 O          65.1126   91.9985   10.5724 O.3     1  UNL1       -0.4045
     36 C          65.6315   93.0652   11.4905 C.3     1  UNL1        0.5753
     37 F          66.1504   94.1320   12.4086 F       1  UNL1       -0.1328
     38 F          66.3147   92.0188   12.3201 F       1  UNL1       -0.1328
     39 F          64.9483   94.1116   10.6608 F       1  UNL1       -0.1328
@<TRIPOS>BOND
     1    22    23    1
     2    23    24   ar
     3    24    25   ar
     4    25    26   ar
     5    26     1    1
     6     1     2    2
     7     1     3   am
     8     3    28    1
     9    28    29    1
    10    29    30   ar
    11    30    31   ar
    12    31    32   ar
    13    32    33   ar
    14    33    35    1
    15    35    36    1
    16    36    37    1
    17    36    38    1
    18    36    39    1
    19    33    34   ar
    20     4     3    1
    21     4     5    1
    22     6     5    1
    23     6     7    1
    24     7     8    1
    25     8    12    1
    26    12    13    1
    27    13    14    1
    28    13    16    1
    29    16    17   ar
    30    17    18   ar
    31    18    19   ar
    32    19    20   ar
    33    20    21   ar
    34     8     9    1
    35    10     9    1
    36    10    11    1
    37    26    27   ar
    38    27    23   ar
    39    34    29   ar
    40    11     4    1
    41    10     6    1
    42    21    16   ar
    43    14    15    1
@<TRIPOS>MOLECULE
*****
 39 43 0 0 0
SMALL
GASTEIGER

@<TRIPOS>ATOM
      1 C          61.6491   87.8726    9.5631 C.2     1  UNL1        0.2685
      2 O          62.0944   89.2263    9.0951 O.2     1  UNL1       -0.2682
      3 N          61.9371   87.4324   10.9679 N.am    1  UNL1       -0.2723
      4 C          62.6703   88.3461   11.9047 C.3     1  UNL1        0.0761
      5 C          63.5393   87.9208   13.0509 C.3     1  UNL1        0.0213
      6 C          64.0693   89.1573   13.7144 C.3     1  UNL1        0.0190
      7 C          64.9339   89.6587   14.8329 C.3     1  UNL1        0.0722
      8 N          64.9268   91.1580   14.7880 N.3     1  UNL1       -0.2704
      9 C          64.0576   91.5833   13.6417 C.3     1  UNL1        0.0722
     10 C          63.5277   90.3468   12.9783 C.3     1  UNL1        0.0190
     11 C          62.6630   89.8454   11.8598 C.3     1  UNL1        0.0213
     12 C          65.6599   92.0716   15.7248 C.3     1  UNL1        0.1063
     13 C          66.6688   93.0434   15.1884 C.3     1  UNL1        0.1486
     14 O          67.5133   93.8458   16.1333 O.3     1  UNL1       -0.3786
     15 H          68.1084   94.4204   15.6268 H       1  UNL1        0.2108
     16 C          66.8333   93.2128   13.7071 C.ar    1  UNL1        0.0056
     17 C          67.5308   92.1552   12.9040 C.ar    1  UNL1       -0.0019
     18 C          67.6953   92.3246   11.4228 C.ar    1  UNL1       -0.0002
     19 C          67.1622   93.5517   10.7445 C.ar    1  UNL1       -0.0000
     20 C          66.4646   94.6093   11.5475 C.ar    1  UNL1       -0.0002
     21 C          66.3002   94.4398   13.0288 C.ar    1  UNL1       -0.0019
     22 C          60.6047   84.1038    6.0154 C.3     1  UNL1        0.1321
     23 N          60.4358   85.2266    6.9956 N.ar    1  UNL1       -0.3057
     24 C          59.1393   85.8791    7.3739 C.ar    1  UNL1        0.1787
     25 N          59.4360   86.9498    8.3818 N.ar    1  UNL1       -0.2192
     26 C          60.9159   86.9588    8.6263 C.ar    1  UNL1        0.1535
     27 C          61.5338   85.8939    7.7697 C.ar    1  UNL1        0.1012
     28 C          61.4918   86.0786   11.4358 C.3     1  UNL1        0.1205
     29 C          62.4018   84.8959   11.2839 C.ar    1  UNL1        0.0007
     30 C          63.2629   84.7640   10.0628 C.ar    1  UNL1       -0.0024
     31 C          64.1729   83.5813    9.9109 C.ar    1  UNL1        0.0028
     32 C          64.2218   82.5304   10.9801 C.ar    1  UNL1        0.0372
     33 C          63.3606   82.6621   12.2012 C.ar    1  UNL1        0.1465
     34 C          62.4507   83.8449   12.3531 C.ar    1  UNL1        0.0346
     35 O          63.4094   81.6112   13.2704 O.3     1  UNL1       -0.4045
     36 C          62.1699   80.8451   13.6261 C.3     1  UNL1        0.5753
     37 F          60.9302   80.0790   13.9819 F       1  UNL1       -0.1328
     38 F          62.4269   79.9012   12.4891 F       1  UNL1       -0.1328
     39 F          61.9128   81.7890   14.7632 F       1  UNL1       -0.1328
@<TRIPOS>BOND
     1    22    23    1
     2    23    24   ar
     3    24    25   ar
     4    25    26   ar
     5    26     1    1
     6     1     2    2
     7     1     3   am
     8     3    28    1
     9    28    29    1
    10    29    30   ar
    11    30    31   ar
    12    31    32   ar
    13    32    33   ar
    14    33    35    1
    15    35    36    1
    16    36    37    1
    17    36    38    1
    18    36    39    1
    19    33    34   ar
    20     4     3    1
    21     4     5    1
    22     6     5    1
    23     6     7    1
    24     7     8    1
    25     8    12    1
    26    12    13    1
    27    13    14    1
    28    13    16    1
    29    16    17   ar
    30    17    18   ar
    31    18    19   ar
    32    19    20   ar
    33    20    21   ar
    34     8     9    1
    35    10     9    1
    36    10    11    1
    37    26    27   ar
    38    27    23   ar
    39    34    29   ar
    40    11     4    1
    41    10     6    1
    42    21    16   ar
    43    14    15    1
@<TRIPOS>MOLECULE
*****
 39 43 0 0 0
SMALL
GASTEIGER

@<TRIPOS>ATOM
      1 C          62.6610   84.2691   14.2105 C.2     1  UNL1        0.2685
      2 O          62.4417   84.8572   15.5728 O.2     1  UNL1       -0.2682
      3 N          63.2341   85.1145   13.1119 N.am    1  UNL1       -0.2723
      4 C          63.5880   86.5481   13.3757 C.3     1  UNL1        0.0761
      5 C          63.2248   87.7192   12.5116 C.3     1  UNL1        0.0213
      6 C          63.7794   88.9572   13.1518 C.3     1  UNL1        0.0190
      7 C          63.8978   90.4461   13.0134 C.3     1  UNL1        0.0722
      8 N          64.6769   90.9603   14.1875 N.3     1  UNL1       -0.2704
      9 C          65.0401   89.7891   15.0516 C.3     1  UNL1        0.0722
     10 C          64.4854   88.5512   14.4114 C.3     1  UNL1        0.0190
     11 C          64.3671   87.0623   14.5498 C.3     1  UNL1        0.0213
     12 C          65.0308   92.3939   14.4513 C.3     1  UNL1        0.1063
     13 C          66.3627   92.9298   14.0168 C.3     1  UNL1        0.1486
     14 O          67.3452   93.4167   15.0403 O.3     1  UNL1       -0.3786
     15 H          68.1488   93.7276   14.5948 H       1  UNL1        0.2108
     16 C          66.7121   92.9789   12.5589 C.ar    1  UNL1        0.0056
     17 C          66.0431   93.9764   11.6604 C.ar    1  UNL1       -0.0019
     18 C          66.3925   94.0255   10.2026 C.ar    1  UNL1       -0.0002
     19 C          67.4111   93.0770    9.6431 C.ar    1  UNL1       -0.0000
     20 C          68.0802   92.0795   10.5416 C.ar    1  UNL1       -0.0002
     21 C          67.7306   92.0304   11.9995 C.ar    1  UNL1       -0.0019
     22 C          62.6374   79.3936   12.1832 C.3     1  UNL1        0.1321
     23 N          62.2963   80.5945   13.0149 N.ar    1  UNL1       -0.3057
     24 C          61.2291   80.6643   14.0665 C.ar    1  UNL1        0.1787
     25 N          61.2358   82.0494   14.6424 N.ar    1  UNL1       -0.2192
     26 C          62.3072   82.8355   13.9466 C.ar    1  UNL1        0.1535
     27 C          62.9626   81.9363   12.9408 C.ar    1  UNL1        0.1012
     28 C          63.4534   84.5263   11.7496 C.3     1  UNL1        0.1205
     29 C          62.6875   85.0538   10.5728 C.ar    1  UNL1        0.0007
     30 C          61.4316   85.8451   10.7889 C.ar    1  UNL1       -0.0024
     31 C          60.6656   86.3726    9.6120 C.ar    1  UNL1        0.0028
     32 C          61.1555   86.1090    8.2190 C.ar    1  UNL1        0.0372
     33 C          62.4114   85.3178    8.0028 C.ar    1  UNL1        0.1465
     34 C          63.1773   84.7902    9.1797 C.ar    1  UNL1        0.0346
     35 O          62.9013   85.0541    6.6098 O.3     1  UNL1       -0.4045
     36 C          61.9848   84.4337    5.5973 C.3     1  UNL1        0.5753
     37 F          61.0683   83.8133    4.5848 F       1  UNL1       -0.1328
     38 F          62.7997   85.0356    4.4911 F       1  UNL1       -0.1328
     39 F          61.1700   83.8319    6.7036 F       1  UNL1       -0.1328
@<TRIPOS>BOND
     1    22    23    1
     2    23    24   ar
     3    24    25   ar
     4    25    26   ar
     5    26     1    1
     6     1     2    2
     7     1     3   am
     8     3    28    1
     9    28    29    1
    10    29    30   ar
    11    30    31   ar
    12    31    32   ar
    13    32    33   ar
    14    33    35    1
    15    35    36    1
    16    36    37    1
    17    36    38    1
    18    36    39    1
    19    33    34   ar
    20     4     3    1
    21     4     5    1
    22     6     5    1
    23     6     7    1
    24     7     8    1
    25     8    12    1
    26    12    13    1
    27    13    14    1
    28    13    16    1
    29    16    17   ar
    30    17    18   ar
    31    18    19   ar
    32    19    20   ar
    33    20    21   ar
    34     8     9    1
    35    10     9    1
    36    10    11    1
    37    26    27   ar
    38    27    23   ar
    39    34    29   ar
    40    11     4    1
    41    10     6    1
    42    21    16   ar
    43    14    15    1
@<TRIPOS>MOLECULE
*****
 39 43 0 0 0
SMALL
GASTEIGER

@<TRIPOS>ATOM
      1 C          65.5761   91.9585   12.6443 C.2     1  UNL1        0.2685
      2 O          66.5020   91.4862   13.7257 O.2     1  UNL1       -0.2682
      3 N          64.4130   91.1076   12.2282 N.am    1  UNL1       -0.2723
      4 C          64.1757   89.7843   12.8935 C.3     1  UNL1        0.0761
      5 C          63.5708   88.5708   12.2521 C.3     1  UNL1        0.0213
      6 C          63.5230   87.4788   13.2793 C.3     1  UNL1        0.0190
      7 C          63.1195   86.0539   13.5177 C.3     1  UNL1        0.0722
      8 N          63.4455   85.7118   14.9413 N.3     1  UNL1       -0.2704
      9 C          64.0504   86.9254   15.5828 C.3     1  UNL1        0.0722
     10 C          64.0983   88.0174   14.5556 C.3     1  UNL1        0.0190
     11 C          64.5017   89.4423   14.3172 C.3     1  UNL1        0.0213
     12 C          63.2083   84.3886   15.6067 C.3     1  UNL1        0.1063
     13 C          63.9676   83.1759   15.1564 C.3     1  UNL1        0.1486
     14 O          65.0136   82.5727   16.0464 O.3     1  UNL1       -0.3786
     15 H          65.4054   81.8012   15.6080 H       1  UNL1        0.2108
     16 C          63.6809   82.5662   13.8162 C.ar    1  UNL1        0.0056
     17 C          62.6239   81.5103   13.6831 C.ar    1  UNL1       -0.0019
     18 C          62.3373   80.9007   12.3429 C.ar    1  UNL1       -0.0002
     19 C          63.1077   81.3470   11.1357 C.ar    1  UNL1       -0.0000
     20 C          64.1647   82.4029   11.2688 C.ar    1  UNL1       -0.0002
     21 C          64.4513   83.0125   12.6090 C.ar    1  UNL1       -0.0019
     22 C          66.4768   95.6420    8.9699 C.3     1  UNL1        0.1321
     23 N          66.2273   94.9749   10.2900 N.ar    1  UNL1       -0.3057
     24 C          66.1292   95.6613   11.6201 C.ar    1  UNL1        0.1787
     25 N          65.8733   94.6148   12.6639 N.ar    1  UNL1       -0.2192
     26 C          65.8133   93.2818   11.9789 C.ar    1  UNL1        0.1535
     27 C          66.0320   93.5043   10.5118 C.ar    1  UNL1        0.1012
     28 C          63.4871   91.5800   11.1467 C.3     1  UNL1        0.1205
     29 C          62.2844   90.7626   10.7791 C.ar    1  UNL1        0.0007
     30 C          60.9183   91.1979   11.2200 C.ar    1  UNL1       -0.0024
     31 C          59.7156   90.3804   10.8524 C.ar    1  UNL1        0.0028
     32 C          59.8788   89.1276   10.0439 C.ar    1  UNL1        0.0372
     33 C          61.2448   88.6922    9.6029 C.ar    1  UNL1        0.1465
     34 C          62.4476   89.5096    9.9705 C.ar    1  UNL1        0.0346
     35 O          61.4082   87.4393    8.7944 O.3     1  UNL1       -0.4045
     36 C          62.0176   86.2186    9.4177 C.3     1  UNL1        0.5753
     37 F          62.6270   84.9979   10.0410 F       1  UNL1       -0.1328
     38 F          63.1653   86.3003    8.4554 F       1  UNL1       -0.1328
     39 F          60.8698   86.1369   10.3799 F       1  UNL1       -0.1328
@<TRIPOS>BOND
     1    22    23    1
     2    23    24   ar
     3    24    25   ar
     4    25    26   ar
     5    26     1    1
     6     1     2    2
     7     1     3   am
     8     3    28    1
     9    28    29    1
    10    29    30   ar
    11    30    31   ar
    12    31    32   ar
    13    32    33   ar
    14    33    35    1
    15    35    36    1
    16    36    37    1
    17    36    38    1
    18    36    39    1
    19    33    34   ar
    20     4     3    1
    21     4     5    1
    22     6     5    1
    23     6     7    1
    24     7     8    1
    25     8    12    1
    26    12    13    1
    27    13    14    1
    28    13    16    1
    29    16    17   ar
    30    17    18   ar
    31    18    19   ar
    32    19    20   ar
    33    20    21   ar
    34     8     9    1
    35    10     9    1
    36    10    11    1
    37    26    27   ar
    38    27    23   ar
    39    34    29   ar
    40    11     4    1
    41    10     6    1
    42    21    16   ar
    43    14    15    1
@<TRIPOS>MOLECULE
*****
 39 43 0 0 0
SMALL
GASTEIGER

@<TRIPOS>ATOM
      1 C          61.4995   87.9035    9.4980 C.2     1  UNL1        0.2685
      2 O          61.8480   89.3057    9.0953 O.2     1  UNL1       -0.2682
      3 N          61.8234   87.4174   10.8796 N.am    1  UNL1       -0.2723
      4 C          62.4958   88.3336   11.8585 C.3     1  UNL1        0.0761
      5 C          62.2441   89.8050   12.0053 C.3     1  UNL1        0.0213
      6 C          63.1308   90.3199   13.1001 C.3     1  UNL1        0.0190
      7 C          63.5233   91.5476   13.8674 C.3     1  UNL1        0.0722
      8 N          64.5655   91.1533   14.8716 N.3     1  UNL1       -0.2704
      9 C          64.8171   89.6817   14.7248 C.3     1  UNL1        0.0722
     10 C          63.9304   89.1668   13.6300 C.3     1  UNL1        0.0190
     11 C          63.5380   87.9391   12.8627 C.3     1  UNL1        0.0213
     12 C          65.2379   92.0694   15.8505 C.3     1  UNL1        0.1063
     13 C          66.4921   92.7936   15.4604 C.3     1  UNL1        0.1486
     14 O          67.2312   93.6140   16.4757 O.3     1  UNL1       -0.3786
     15 H          68.0133   94.0120   16.0625 H       1  UNL1        0.2108
     16 C          67.0075   92.6976   14.0549 C.ar    1  UNL1        0.0056
     17 C          66.3601   93.4960   12.9624 C.ar    1  UNL1       -0.0019
     18 C          66.8754   93.3999   11.5571 C.ar    1  UNL1       -0.0002
     19 C          68.0382   92.5054   11.2441 C.ar    1  UNL1       -0.0000
     20 C          68.6856   91.7071   12.3366 C.ar    1  UNL1       -0.0002
     21 C          68.1702   91.8031   13.7420 C.ar    1  UNL1       -0.0019
     22 C          60.6727   84.0926    5.9378 C.3     1  UNL1        0.1321
     23 N          60.4469   85.2356    6.8827 N.ar    1  UNL1       -0.3057
     24 C          59.1373   85.9189    7.1427 C.ar    1  UNL1        0.1787
     25 N          59.3722   87.0016    8.1541 N.ar    1  UNL1       -0.2192
     26 C          60.8270   86.9872    8.5190 C.ar    1  UNL1        0.1535
     27 C          61.4912   85.8958    7.7333 C.ar    1  UNL1        0.1012
     28 C          61.4748   86.0151   11.2822 C.3     1  UNL1        0.1205
     29 C          62.5630   85.0098   11.5170 C.ar    1  UNL1        0.0007
     30 C          63.0669   84.1706   10.3804 C.ar    1  UNL1       -0.0024
     31 C          64.1551   83.1653   10.6153 C.ar    1  UNL1        0.0028
     32 C          64.7394   82.9991   11.9867 C.ar    1  UNL1        0.0372
     33 C          64.2356   83.8383   13.1234 C.ar    1  UNL1        0.1465
     34 C          63.1474   84.8436   12.8885 C.ar    1  UNL1        0.0346
     35 O          64.8199   83.6722   14.4949 O.3     1  UNL1       -0.4045
     36 C          64.4789   84.6511   15.5790 C.3     1  UNL1        0.5753
     37 F          64.1379   85.6302   16.6631 F       1  UNL1       -0.1328
     38 F          63.3768   83.7481   16.0478 F       1  UNL1       -0.1328
     39 F          65.5810   85.5542   15.1102 F       1  UNL1       -0.1328
@<TRIPOS>BOND
     1    22    23    1
     2    23    24   ar
     3    24    25   ar
     4    25    26   ar
     5    26     1    1
     6     1     2    2
     7     1     3   am
     8     3    28    1
     9    28    29    1
    10    29    30   ar
    11    30    31   ar
    12    31    32   ar
    13    32    33   ar
    14    33    35    1
    15    35    36    1
    16    36    37    1
    17    36    38    1
    18    36    39    1
    19    33    34   ar
    20     4     3    1
    21     4     5    1
    22     6     5    1
    23     6     7    1
    24     7     8    1
    25     8    12    1
    26    12    13    1
    27    13    14    1
    28    13    16    1
    29    16    17   ar
    30    17    18   ar
    31    18    19   ar
    32    19    20   ar
    33    20    21   ar
    34     8     9    1
    35    10     9    1
    36    10    11    1
    37    26    27   ar
    38    27    23   ar
    39    34    29   ar
    40    11     4    1
    41    10     6    1
    42    21    16   ar
    43    14    15    1
