@<TRIPOS>MOLECULE
*****
 22 23 0 0 0
SMALL
GASTEIGER

@<TRIPOS>ATOM
      1 C          65.6134   92.9908   11.8828 C.ar    1  UNL1        0.1754
      2 C          64.9697   92.6492   10.5717 C.ar    1  UNL1        0.0403
      3 C          63.9409   91.5598   10.5025 C.ar    1  UNL1        0.0063
      4 C          63.5558   90.8120   11.7444 C.ar    1  UNL1        0.0373
      5 C          64.1995   91.1535   13.0555 C.ar    1  UNL1        0.1753
      6 C          65.2283   92.2429   13.1247 C.ar    1  UNL1        0.2061
      7 C          66.4171   95.3717   11.2230 C.3     1  UNL1        0.2526
      8 O          66.6422   94.0802   11.9519 O.3     1  UNL1       -0.4683
      9 C          62.5270   89.7226   11.6752 C.2     1  UNL1        0.0064
     10 C          62.4291   88.8600   10.4520 C.2     1  UNL1        0.0422
     11 C          61.4003   87.7706   10.3828 C.2     1  UNL1        0.1971
     12 O          60.3810   87.6313   11.4743 O.2     1  UNL1       -0.2865
     13 C          61.3909   86.8206    9.2220 C.ar    1  UNL1        0.0581
     14 C          62.6484   86.1030    8.8298 C.ar    1  UNL1        0.0063
     15 C          62.6389   85.1530    7.6690 C.ar    1  UNL1        0.0208
     16 C          61.3720   84.9206    6.9004 C.ar    1  UNL1        0.0989
     17 N          60.1144   85.6382    7.2926 N.ar    1  UNL1       -0.2422
     18 C          60.1239   86.5882    8.4533 C.ar    1  UNL1        0.1020
     19 O          63.8143   90.4057   14.2975 O.3     1  UNL1       -0.4683
     20 C          64.3601   89.0306   14.5445 C.3     1  UNL1        0.2526
     21 O          65.8719   92.5845   14.4358 O.3     1  UNL1       -0.4654
     22 C          67.1108   91.8612   14.8741 C.3     1  UNL1        0.2528
@<TRIPOS>BOND
     1     7     8    1
     2     8     1    1
     3     1     2   ar
     4     2     3   ar
     5     3     4   ar
     6     4     9    1
     7     9    10    2
     8    10    11    1
     9    11    12    2
    10    11    13    1
    11    13    14   ar
    12    14    15   ar
    13    15    16   ar
    14    16    17   ar
    15    17    18   ar
    16     4     5   ar
    17     5    19    1
    18    19    20    1
    19     5     6   ar
    20     6    21    1
    21    21    22    1
    22     6     1   ar
    23    18    13   ar
@<TRIPOS>MOLECULE
*****
 22 23 0 0 0
SMALL
GASTEIGER

@<TRIPOS>ATOM
      1 C          59.7906   88.4423    8.3168 C.ar    1  UNL1        0.1754
      2 C          60.0061   87.0500    7.8022 C.ar    1  UNL1        0.0403
      3 C          60.7899   86.0628    8.6153 C.ar    1  UNL1        0.0063
      4 C          61.3581   86.4679    9.9430 C.ar    1  UNL1        0.0373
      5 C          61.1425   87.8603   10.4576 C.ar    1  UNL1        0.1753
      6 C          60.3588   88.8475    9.6445 C.ar    1  UNL1        0.2061
      7 C          59.4409   89.7636    6.1073 C.3     1  UNL1        0.2526
      8 O          59.0068   89.4295    7.5036 O.3     1  UNL1       -0.4683
      9 C          62.1418   85.4808   10.7562 C.2     1  UNL1        0.0064
     10 C          63.0206   84.4756   10.0725 C.2     1  UNL1        0.0422
     11 C          63.8043   83.4884   10.8856 C.2     1  UNL1        0.1971
     12 O          64.8423   82.6296   10.2261 O.2     1  UNL1       -0.2865
     13 C          63.5501   83.3601   12.3584 C.ar    1  UNL1        0.0581
     14 C          62.4745   82.4409   12.8564 C.ar    1  UNL1        0.0063
     15 C          62.2202   82.3125   14.3292 C.ar    1  UNL1        0.0208
     16 C          63.0416   83.1034   15.3038 C.ar    1  UNL1        0.0989
     17 N          64.1173   84.0226   14.8057 N.ar    1  UNL1       -0.2422
     18 C          64.3715   84.1509   13.3330 C.ar    1  UNL1        0.1020
     19 O          61.7107   88.2655   11.7855 O.3     1  UNL1       -0.4683
     20 C          62.9538   89.1029   11.8452 C.3     1  UNL1        0.2526
     21 O          60.1432   90.2399   10.1592 O.3     1  UNL1       -0.4654
     22 C          59.3633   90.4606   11.4213 C.3     1  UNL1        0.2528
@<TRIPOS>BOND
     1     7     8    1
     2     8     1    1
     3     1     2   ar
     4     2     3   ar
     5     3     4   ar
     6     4     9    1
     7     9    10    2
     8    10    11    1
     9    11    12    2
    10    11    13    1
    11    13    14   ar
    12    14    15   ar
    13    15    16   ar
    14    16    17   ar
    15    17    18   ar
    16     4     5   ar
    17     5    19    1
    18    19    20    1
    19     5     6   ar
    20     6    21    1
    21    21    22    1
    22     6     1   ar
    23    18    13   ar
@<TRIPOS>MOLECULE
*****
 22 23 0 0 0
SMALL
GASTEIGER

@<TRIPOS>ATOM
      1 C          63.7845   83.9589   13.8714 C.ar    1  UNL1        0.1754
      2 C          64.3736   84.7840   14.9768 C.ar    1  UNL1        0.0403
      3 C          64.3926   86.2799   14.8677 C.ar    1  UNL1        0.0063
      4 C          63.8225   86.9507   13.6533 C.ar    1  UNL1        0.0373
      5 C          63.2334   86.1255   12.5478 C.ar    1  UNL1        0.1753
      6 C          63.2144   84.6296   12.6569 C.ar    1  UNL1        0.2061
      7 C          62.4657   81.7422   14.1827 C.3     1  UNL1        0.2526
      8 O          63.7654   82.4629   13.9804 O.3     1  UNL1       -0.4683
      9 C          63.8415   88.4466   13.5442 C.2     1  UNL1        0.0064
     10 C          64.3119   89.2770   14.7014 C.2     1  UNL1        0.0422
     11 C          64.3309   90.7729   14.5923 C.2     1  UNL1        0.1971
     12 O          63.5697   91.6067   15.5799 O.2     1  UNL1       -0.2865
     13 C          65.1111   91.4351   13.4955 C.ar    1  UNL1        0.0581
     14 C          64.4578   91.7167   12.1750 C.ar    1  UNL1        0.0063
     15 C          65.2381   92.3789   11.0783 C.ar    1  UNL1        0.0208
     16 C          66.6716   92.7594   11.3021 C.ar    1  UNL1        0.0989
     17 N          67.3249   92.4778   12.6227 N.ar    1  UNL1       -0.2422
     18 C          66.5447   91.8156   13.7194 C.ar    1  UNL1        0.1020
     19 O          62.6632   86.7963   11.3333 O.3     1  UNL1       -0.4683
     20 C          61.1854   86.7578   11.0795 C.3     1  UNL1        0.2526
     21 O          62.6252   83.8045   11.5514 O.3     1  UNL1       -0.4654
     22 C          63.5180   83.2038   10.5063 C.3     1  UNL1        0.2528
@<TRIPOS>BOND
     1     7     8    1
     2     8     1    1
     3     1     2   ar
     4     2     3   ar
     5     3     4   ar
     6     4     9    1
     7     9    10    2
     8    10    11    1
     9    11    12    2
    10    11    13    1
    11    13    14   ar
    12    14    15   ar
    13    15    16   ar
    14    16    17   ar
    15    17    18   ar
    16     4     5   ar
    17     5    19    1
    18    19    20    1
    19     5     6   ar
    20     6    21    1
    21    21    22    1
    22     6     1   ar
    23    18    13   ar
@<TRIPOS>MOLECULE
*****
 22 23 0 0 0
SMALL
GASTEIGER

@<TRIPOS>ATOM
      1 C          60.9318   88.1105   10.1946 C.ar    1  UNL1        0.1754
      2 C          60.9740   89.5268    9.7026 C.ar    1  UNL1        0.0403
      3 C          61.9348   90.5043   10.3120 C.ar    1  UNL1        0.0063
      4 C          62.8535   90.0654   11.4135 C.ar    1  UNL1        0.0373
      5 C          62.8113   88.6490   11.9056 C.ar    1  UNL1        0.1753
      6 C          61.8505   87.6716   11.2962 C.ar    1  UNL1        0.2061
      7 C          59.7622   87.1133    8.1000 C.3     1  UNL1        0.2526
      8 O          59.9709   87.1331    9.5852 O.3     1  UNL1       -0.4683
      9 C          63.8143   91.0428   12.0229 C.2     1  UNL1        0.0064
     10 C          64.5579   92.0081   11.1482 C.2     1  UNL1        0.0422
     11 C          65.5188   92.9856   11.7576 C.2     1  UNL1        0.1971
     12 O          65.7905   92.9500   13.2324 O.2     1  UNL1       -0.2865
     13 C          66.2080   93.9986   10.8922 C.ar    1  UNL1        0.0581
     14 C          67.0396   93.5487    9.7278 C.ar    1  UNL1        0.0063
     15 C          67.7288   94.5617    8.8624 C.ar    1  UNL1        0.0208
     16 C          67.5863   96.0247    9.1615 C.ar    1  UNL1        0.0989
     17 N          66.7547   96.4746   10.3260 N.ar    1  UNL1       -0.2422
     18 C          66.0655   95.4616   11.1914 C.ar    1  UNL1        0.1020
     19 O          63.7300   88.2101   13.0072 O.3     1  UNL1       -0.4683
     20 C          63.8091   89.0025   14.2783 C.3     1  UNL1        0.2526
     21 O          61.8083   86.2552   11.7883 O.3     1  UNL1       -0.4654
     22 C          62.4747   85.1671   10.9997 C.3     1  UNL1        0.2528
@<TRIPOS>BOND
     1     7     8    1
     2     8     1    1
     3     1     2   ar
     4     2     3   ar
     5     3     4   ar
     6     4     9    1
     7     9    10    2
     8    10    11    1
     9    11    12    2
    10    11    13    1
    11    13    14   ar
    12    14    15   ar
    13    15    16   ar
    14    16    17   ar
    15    17    18   ar
    16     4     5   ar
    17     5    19    1
    18    19    20    1
    19     5     6   ar
    20     6    21    1
    21    21    22    1
    22     6     1   ar
    23    18    13   ar
@<TRIPOS>MOLECULE
*****
 22 23 0 0 0
SMALL
GASTEIGER

@<TRIPOS>ATOM
      1 C          65.0792   91.9961   12.7370 C.ar    1  UNL1        0.1754
      2 C          65.9163   91.5675   13.9055 C.ar    1  UNL1        0.0403
      3 C          65.5454   90.3401   14.6838 C.ar    1  UNL1        0.0063
      4 C          64.3373   89.5412   14.2937 C.ar    1  UNL1        0.0373
      5 C          63.5002   89.9697   13.1252 C.ar    1  UNL1        0.1753
      6 C          63.8711   91.1972   12.3468 C.ar    1  UNL1        0.2061
      7 C          66.2575   93.0984   10.7007 C.3     1  UNL1        0.2526
      8 O          65.4501   93.2235   11.9586 O.3     1  UNL1       -0.4683
      9 C          63.9664   88.3138   15.0721 C.2     1  UNL1        0.0064
     10 C          64.3373   86.9562   14.5532 C.2     1  UNL1        0.0422
     11 C          63.9664   85.7287   15.3316 C.2     1  UNL1        0.1971
     12 O          63.7321   85.8207   16.8103 O.2     1  UNL1       -0.2865
     13 C          63.8298   84.4093   14.6312 C.ar    1  UNL1        0.0581
     14 C          64.5088   84.1864   13.3124 C.ar    1  UNL1        0.0063
     15 C          64.3722   82.8670   12.6120 C.ar    1  UNL1        0.0208
     16 C          63.5566   81.7705   13.2305 C.ar    1  UNL1        0.0989
     17 N          62.8776   81.9934   14.5493 N.ar    1  UNL1       -0.2422
     18 C          63.0142   83.3128   15.2497 C.ar    1  UNL1        0.1020
     19 O          62.2920   89.1708   12.7350 O.3     1  UNL1       -0.4683
     20 C          62.3856   88.1608   11.6300 C.3     1  UNL1        0.2526
     21 O          63.0338   91.6257   11.1782 O.3     1  UNL1       -0.4654
     22 C          63.2708   91.0235    9.8250 C.3     1  UNL1        0.2528
@<TRIPOS>BOND
     1     7     8    1
     2     8     1    1
     3     1     2   ar
     4     2     3   ar
     5     3     4   ar
     6     4     9    1
     7     9    10    2
     8    10    11    1
     9    11    12    2
    10    11    13    1
    11    13    14   ar
    12    14    15   ar
    13    15    16   ar
    14    16    17   ar
    15    17    18   ar
    16     4     5   ar
    17     5    19    1
    18    19    20    1
    19     5     6   ar
    20     6    21    1
    21    21    22    1
    22     6     1   ar
    23    18    13   ar
@<TRIPOS>MOLECULE
*****
 22 23 0 0 0
SMALL
GASTEIGER

@<TRIPOS>ATOM
      1 C          61.1408   88.0994   10.2195 C.ar    1  UNL1        0.1754
      2 C          61.1636   89.4410    9.5492 C.ar    1  UNL1        0.0403
      3 C          62.0721   90.5196   10.0605 C.ar    1  UNL1        0.0063
      4 C          62.9577   90.2565   11.2422 C.ar    1  UNL1        0.0373
      5 C          62.9349   88.9148   11.9125 C.ar    1  UNL1        0.1753
      6 C          62.0264   87.8363   11.4012 C.ar    1  UNL1        0.2061
      7 C          60.5678   86.2974    8.4378 C.3     1  UNL1        0.2526
      8 O          60.2323   87.0209    9.7082 O.3     1  UNL1       -0.4683
      9 C          63.8662   91.3350   11.7535 C.2     1  UNL1        0.0064
     10 C          64.6315   92.1910   10.7883 C.2     1  UNL1        0.0422
     11 C          65.5400   93.2695   11.2996 C.2     1  UNL1        0.1971
     12 O          65.4905   94.6411   10.6945 O.2     1  UNL1       -0.2865
     13 C          66.4979   92.9764   12.4161 C.ar    1  UNL1        0.0581
     14 C          66.3071   93.6213   13.7569 C.ar    1  UNL1        0.0063
     15 C          67.2650   93.3282   14.8734 C.ar    1  UNL1        0.0208
     16 C          68.4138   92.3901   14.6491 C.ar    1  UNL1        0.0989
     17 N          68.6046   91.7452   13.3082 N.ar    1  UNL1       -0.2422
     18 C          67.6467   92.0383   12.1918 C.ar    1  UNL1        0.1020
     19 O          63.8205   88.6516   13.0942 O.3     1  UNL1       -0.4683
     20 C          63.6429   89.4434   14.3557 C.3     1  UNL1        0.2526
     21 O          62.0036   86.4946   12.0716 O.3     1  UNL1       -0.4654
     22 C          62.6531   85.3149   11.4109 C.3     1  UNL1        0.2528
@<TRIPOS>BOND
     1     7     8    1
     2     8     1    1
     3     1     2   ar
     4     2     3   ar
     5     3     4   ar
     6     4     9    1
     7     9    10    2
     8    10    11    1
     9    11    12    2
    10    11    13    1
    11    13    14   ar
    12    14    15   ar
    13    15    16   ar
    14    16    17   ar
    15    17    18   ar
    16     4     5   ar
    17     5    19    1
    18    19    20    1
    19     5     6   ar
    20     6    21    1
    21    21    22    1
    22     6     1   ar
    23    18    13   ar
@<TRIPOS>MOLECULE
*****
 22 23 0 0 0
SMALL
GASTEIGER

@<TRIPOS>ATOM
      1 C          63.5547   83.9443   14.2340 C.ar    1  UNL1        0.1754
      2 C          64.1448   84.8627   15.2627 C.ar    1  UNL1        0.0403
      3 C          64.2541   86.3321   14.9818 C.ar    1  UNL1        0.0063
      4 C          63.7734   86.8831   13.6722 C.ar    1  UNL1        0.0373
      5 C          63.1833   85.9647   12.6434 C.ar    1  UNL1        0.1753
      6 C          63.0739   84.4953   12.9244 C.ar    1  UNL1        0.2061
      7 C          62.1044   81.8034   14.4850 C.3     1  UNL1        0.2526
      8 O          63.4453   82.4749   14.5149 O.3     1  UNL1       -0.4683
      9 C          63.8828   88.3525   13.3912 C.2     1  UNL1        0.0064
     10 C          64.4968   89.2670   14.4093 C.2     1  UNL1        0.0422
     11 C          64.6062   90.7364   14.1284 C.2     1  UNL1        0.1971
     12 O          63.5634   91.4203   13.2948 O.2     1  UNL1       -0.2865
     13 C          65.7584   91.5219   14.6810 C.ar    1  UNL1        0.0581
     14 C          67.0717   91.5376   13.9564 C.ar    1  UNL1        0.0063
     15 C          68.2239   92.3231   14.5091 C.ar    1  UNL1        0.0208
     16 C          68.0628   93.0929   15.7863 C.ar    1  UNL1        0.0989
     17 N          66.7495   93.0772   16.5110 N.ar    1  UNL1       -0.2422
     18 C          65.5974   92.2917   15.9583 C.ar    1  UNL1        0.1020
     19 O          62.7025   86.5157   11.3337 O.3     1  UNL1       -0.4683
     20 C          61.2353   86.7216   11.0999 C.3     1  UNL1        0.2526
     21 O          62.4838   83.5769   11.8956 O.3     1  UNL1       -0.4654
     22 C          63.3830   82.7781   10.9993 C.3     1  UNL1        0.2528
@<TRIPOS>BOND
     1     7     8    1
     2     8     1    1
     3     1     2   ar
     4     2     3   ar
     5     3     4   ar
     6     4     9    1
     7     9    10    2
     8    10    11    1
     9    11    12    2
    10    11    13    1
    11    13    14   ar
    12    14    15   ar
    13    15    16   ar
    14    16    17   ar
    15    17    18   ar
    16     4     5   ar
    17     5    19    1
    18    19    20    1
    19     5     6   ar
    20     6    21    1
    21    21    22    1
    22     6     1   ar
    23    18    13   ar
@<TRIPOS>MOLECULE
*****
 22 23 0 0 0
SMALL
GASTEIGER

@<TRIPOS>ATOM
      1 C          66.1965   91.4875   14.4567 C.ar    1  UNL1        0.1754
      2 C          64.9191   90.8346   14.8947 C.ar    1  UNL1        0.0403
      3 C          63.7824   90.6863   13.9272 C.ar    1  UNL1        0.0063
      4 C          63.9232   91.1909   12.5217 C.ar    1  UNL1        0.0373
      5 C          65.2006   91.8438   12.0837 C.ar    1  UNL1        0.1753
      6 C          66.3372   91.9921   13.0512 C.ar    1  UNL1        0.2061
      7 C          67.6007   92.9633   16.0691 C.3     1  UNL1        0.2526
      8 O          67.3331   91.6358   15.4242 O.3     1  UNL1       -0.4683
      9 C          62.7865   91.0426   11.5542 C.2     1  UNL1        0.0064
     10 C          62.1338   89.7057   11.3632 C.2     1  UNL1        0.0422
     11 C          60.9971   89.5574   10.3957 C.2     1  UNL1        0.1971
     12 O          59.9459   90.6235   10.3046 O.2     1  UNL1       -0.2865
     13 C          60.9118   88.3430    9.5193 C.ar    1  UNL1        0.0581
     14 C          61.9758   87.2884    9.5935 C.ar    1  UNL1        0.0063
     15 C          61.8905   86.0740    8.7170 C.ar    1  UNL1        0.0208
     16 C          60.7412   85.9143    7.7665 C.ar    1  UNL1        0.0989
     17 N          59.6771   86.9691    7.6924 N.ar    1  UNL1       -0.2422
     18 C          59.7625   88.1834    8.5687 C.ar    1  UNL1        0.1020
     19 O          65.3414   92.3485   10.6782 O.3     1  UNL1       -0.4683
     20 C          65.5295   93.8146   10.4230 C.3     1  UNL1        0.2526
     21 O          67.6147   92.6451   12.6132 O.3     1  UNL1       -0.4654
     22 C          68.5836   91.8931   11.7496 C.3     1  UNL1        0.2528
@<TRIPOS>BOND
     1     7     8    1
     2     8     1    1
     3     1     2   ar
     4     2     3   ar
     5     3     4   ar
     6     4     9    1
     7     9    10    2
     8    10    11    1
     9    11    12    2
    10    11    13    1
    11    13    14   ar
    12    14    15   ar
    13    15    16   ar
    14    16    17   ar
    15    17    18   ar
    16     4     5   ar
    17     5    19    1
    18    19    20    1
    19     5     6   ar
    20     6    21    1
    21    21    22    1
    22     6     1   ar
    23    18    13   ar
@<TRIPOS>MOLECULE
*****
 22 23 0 0 0
SMALL
GASTEIGER

@<TRIPOS>ATOM
      1 C          60.1254   88.8795    8.5628 C.ar    1  UNL1        0.1754
      2 C          60.7930   90.0807    9.1639 C.ar    1  UNL1        0.0403
      3 C          61.7011   89.9206   10.3470 C.ar    1  UNL1        0.0063
      4 C          61.9415   88.5592   10.9290 C.ar    1  UNL1        0.0373
      5 C          61.2740   87.3580   10.3279 C.ar    1  UNL1        0.1753
      6 C          60.3659   87.5181    9.1448 C.ar    1  UNL1        0.2061
      7 C          59.6284   89.9131    6.2315 C.3     1  UNL1        0.2526
      8 O          59.2174   89.0397    7.3796 O.3     1  UNL1       -0.4683
      9 C          62.8496   88.3990   12.1121 C.2     1  UNL1        0.0064
     10 C          63.2781   89.6032   12.8972 C.2     1  UNL1        0.0422
     11 C          64.1861   89.4430   14.0803 C.2     1  UNL1        0.1971
     12 O          65.3658   90.3539   14.2490 O.2     1  UNL1       -0.2865
     13 C          63.9144   88.3719   15.0947 C.ar    1  UNL1        0.0581
     14 C          63.1767   88.7048   16.3576 C.ar    1  UNL1        0.0063
     15 C          62.9050   87.6336   17.3720 C.ar    1  UNL1        0.0208
     16 C          63.3710   86.2297   17.1234 C.ar    1  UNL1        0.0989
     17 N          64.1087   85.8969   15.8604 N.ar    1  UNL1       -0.2422
     18 C          64.3804   86.9680   14.8461 C.ar    1  UNL1        0.1020
     19 O          61.5144   85.9965   10.9099 O.3     1  UNL1       -0.4683
     20 C          62.5849   85.1149   10.3383 C.3     1  UNL1        0.2526
     21 O          59.6983   86.3168    8.5437 O.3     1  UNL1       -0.4654
     22 C          60.3159   85.6279    7.3630 C.3     1  UNL1        0.2528
@<TRIPOS>BOND
     1     7     8    1
     2     8     1    1
     3     1     2   ar
     4     2     3   ar
     5     3     4   ar
     6     4     9    1
     7     9    10    2
     8    10    11    1
     9    11    12    2
    10    11    13    1
    11    13    14   ar
    12    14    15   ar
    13    15    16   ar
    14    16    17   ar
    15    17    18   ar
    16     4     5   ar
    17     5    19    1
    18    19    20    1
    19     5     6   ar
    20     6    21    1
    21    21    22    1
    22     6     1   ar
    23    18    13   ar
