@<TRIPOS>MOLECULE
*****
 57 62 0 0 0
SMALL
GASTEIGER

@<TRIPOS>ATOM
      1 C          62.8108   88.9629   12.0662 C.3     1  UNL1        0.1021
      2 N          61.8954   88.9232   10.8786 N.3     1  UNL1       -0.2621
      3 C          61.2825   90.1909   10.3613 C.3     1  UNL1        0.0901
      4 C          60.3671   90.1512    9.1737 C.3     1  UNL1        0.0899
      5 N          60.0645   88.8438    8.5034 N.3     1  UNL1       -0.2661
      6 C          60.6774   87.5762    9.0207 C.3     1  UNL1        0.0980
      7 C          61.5928   87.6159   10.2083 C.3     1  UNL1        0.1510
      8 C          62.2056   86.3484   10.7255 C.2     1  UNL1        0.2386
      9 O          62.8805   85.4007    9.7787 O.2     1  UNL1       -0.2736
     10 N          62.1436   86.0283   12.1898 N.am    1  UNL1       -0.2961
     11 H          61.7006   86.6503   12.8112 H       1  UNL1        0.1497
     12 C          62.7564   84.7608   12.7070 C.3     1  UNL1        0.1939
     13 C          63.9422   84.8206   13.6238 C.3     1  UNL1        0.4154
     14 F          65.1279   84.8804   14.5405 F       1  UNL1       -0.1682
     15 F          63.9156   86.3190   13.5604 F       1  UNL1       -0.1682
     16 F          63.9688   83.3222   13.6872 F       1  UNL1       -0.1682
     17 C          59.1491   88.8041    7.3158 C.3     1  UNL1        0.1008
     18 C          59.2286   89.8779    6.2713 C.ar    1  UNL1        0.0129
     19 C          58.1042   90.7711    5.8378 C.ar    1  UNL1        0.0176
     20 C          58.6270   91.6922    4.7756 C.ar    1  UNL1        0.0799
     21 N          60.0746   91.3682    4.5527 N.ar    1  UNL1       -0.3038
     22 C          60.4464   90.2469    5.4771 C.ar    1  UNL1        0.0772
     23 C          60.9898   92.0465    3.5767 C.ar    1  UNL1        0.0641
     24 C          60.4861   93.1894    2.7461 C.ar    1  UNL1        0.0184
     25 C          61.4013   93.8677    1.7701 C.ar    1  UNL1        0.0129
     26 C          62.8200   93.4029    1.6248 C.ar    1  UNL1        0.0578
     27 CL         63.7351   94.0812    0.6488 Cl      1  UNL1       -0.0822
     28 C          63.3237   92.2599    2.4555 C.ar    1  UNL1        0.0129
     29 C          62.4085   91.5818    3.4314 C.ar    1  UNL1        0.0184
     30 C          62.5297   89.9057   13.1986 C.3     1  UNL1        0.1269
     31 O          61.7233   89.4443   14.3762 O.3     1  UNL1       -0.3830
     32 H          61.4635   88.5186   14.2473 H       1  UNL1        0.2104
     33 C          63.0552   91.3100   13.1534 C.3     1  UNL1        0.0401
     34 C          64.5322   91.5556   13.0644 C.3     1  UNL1        0.0833
     35 O          64.7955   92.0072   10.5194 O.2     1  UNL1       -0.2751
     36 C          65.0891   92.3806   11.9422 C.2     1  UNL1        0.2226
     37 N          65.9395   93.5791   12.2428 N.am    1  UNL1       -0.2999
     38 H          66.1322   93.8242   13.1767 H       1  UNL1        0.1498
     39 C          66.4963   94.4042   11.1207 C.3     1  UNL1        0.1278
     40 C          67.3234   93.7547   10.0510 C.ar    1  UNL1        0.0320
     41 C          67.5935   92.2802   10.1034 C.ar    1  UNL1        0.0004
     42 C          68.4205   91.6307    9.0338 C.ar    1  UNL1       -0.0001
     43 C          68.9774   92.4558    7.9116 C.ar    1  UNL1        0.0031
     44 C          68.7072   93.9303    7.8592 C.ar    1  UNL1        0.0366
     45 C          67.8802   94.5797    8.9289 C.ar    1  UNL1        0.1362
     46 O          67.6101   96.0543    8.8765 O.3     1  UNL1       -0.4730
     47 C          66.7831   96.7038    9.9462 C.3     1  UNL1        0.2364
     48 C          66.2262   95.8787   11.0683 C.3     1  UNL1        0.1762
     49 O          65.3992   96.5281   12.1380 O.3     1  UNL1       -0.3788
     50 H          65.3218   97.4776   11.9551 H       1  UNL1        0.2106
     51 C          65.4524   90.9762   14.0975 C.3     1  UNL1        0.0371
     52 C          66.6506   91.7538   14.5553 C.ar    1  UNL1       -0.0025
     53 C          66.5611   92.6193   15.7771 C.ar    1  UNL1       -0.0011
     54 C          67.7594   93.3970   16.2348 C.ar    1  UNL1        0.0204
     55 C          69.0471   93.3091   15.4707 C.ar    1  UNL1        0.0989
     56 N          69.1367   92.4436   14.2489 N.ar    1  UNL1       -0.2426
     57 C          67.9385   91.6659   13.7912 C.ar    1  UNL1        0.0946
@<TRIPOS>BOND
     1    35    36    2
     2    36    37   am
     3    39    37    1
     4    39    40    1
     5    40    41   ar
     6    41    42   ar
     7    42    43   ar
     8    43    44   ar
     9    44    45   ar
    10    45    46    1
    11    46    47    1
    12    47    48    1
    13    48    49    1
    14    36    34    1
    15    34    51    1
    16    51    52    1
    17    52    53   ar
    18    53    54   ar
    19    54    55   ar
    20    55    56   ar
    21    56    57   ar
    22    34    33    1
    23    33    30    1
    24    30    31    1
    25    30     1    1
    26     1     2    1
    27     2     3    1
    28     3     4    1
    29     4     5    1
    30     5    17    1
    31    17    18    1
    32    18    19   ar
    33    19    20   ar
    34    20    21   ar
    35    21    23    1
    36    23    24   ar
    37    24    25   ar
    38    25    26   ar
    39    26    27    1
    40    26    28   ar
    41    28    29   ar
    42    21    22   ar
    43     5     6    1
    44     6     7    1
    45     7     8    1
    46     8     9    2
    47     8    10   am
    48    10    12    1
    49    12    13    1
    50    13    14    1
    51    13    15    1
    52    13    16    1
    53    48    39    1
    54    57    52   ar
    55     7     2    1
    56    45    40   ar
    57    22    18   ar
    58    29    23   ar
    59    37    38    1
    60    49    50    1
    61    31    32    1
    62    10    11    1
@<TRIPOS>MOLECULE
*****
 57 62 0 0 0
SMALL
GASTEIGER

@<TRIPOS>ATOM
      1 C          62.5149   88.7084   12.0817 C.3     1  UNL1        0.1021
      2 N          61.6650   88.7275   10.8458 N.3     1  UNL1       -0.2621
      3 C          61.0138   90.0043   10.4031 C.3     1  UNL1        0.0901
      4 C          60.1640   90.0234    9.1672 C.3     1  UNL1        0.0899
      5 N          59.9654   88.7658    8.3740 N.3     1  UNL1       -0.2661
      6 C          60.6166   87.4891    8.8167 C.3     1  UNL1        0.0980
      7 C          61.4664   87.4700   10.0526 C.3     1  UNL1        0.1510
      8 C          62.1177   86.1934   10.4954 C.2     1  UNL1        0.2386
      9 O          62.9232   85.3854    9.5216 O.2     1  UNL1       -0.2736
     10 N          61.9633   85.7247   11.9119 N.am    1  UNL1       -0.2961
     11 H          61.4346   86.2550   12.5511 H       1  UNL1        0.1497
     12 C          62.6146   84.4480   12.3547 C.3     1  UNL1        0.1939
     13 C          63.9602   84.4828   13.0167 C.3     1  UNL1        0.4154
     14 F          65.3057   84.5175   13.6787 F       1  UNL1       -0.1682
     15 F          63.3598   85.1815   14.2004 F       1  UNL1       -0.1682
     16 F          64.5605   83.7840   11.8330 F       1  UNL1       -0.1682
     17 C          59.1156   88.7849    7.1381 C.3     1  UNL1        0.1008
     18 C          59.2576   89.9024    6.1475 C.ar    1  UNL1        0.0129
     19 C          58.2077   90.9187    5.8084 C.ar    1  UNL1        0.0176
     20 C          58.7756   91.8441    4.7735 C.ar    1  UNL1        0.0799
     21 N          60.1764   91.3997    4.4730 N.ar    1  UNL1       -0.3038
     22 C          60.4743   90.1997    5.3222 C.ar    1  UNL1        0.0772
     23 C          61.1146   92.0426    3.4949 C.ar    1  UNL1        0.0641
     24 C          60.6670   93.2307    2.6962 C.ar    1  UNL1        0.0184
     25 C          61.6052   93.8735    1.7181 C.ar    1  UNL1        0.0129
     26 C          62.9910   93.3282    1.5389 C.ar    1  UNL1        0.0578
     27 CL         63.9292   93.9711    0.5609 Cl      1  UNL1       -0.0822
     28 C          63.4387   92.1400    2.3377 C.ar    1  UNL1        0.0129
     29 C          62.5004   91.4973    3.3156 C.ar    1  UNL1        0.0184
     30 C          62.3082   89.7409   13.1501 C.3     1  UNL1        0.1269
     31 O          61.5076   89.4047   14.3732 O.3     1  UNL1       -0.3830
     32 H          61.1987   88.4870   14.3153 H       1  UNL1        0.2104
     33 C          62.9022   91.1096   12.9952 C.3     1  UNL1        0.0401
     34 C          64.3904   91.2908   13.0408 C.3     1  UNL1        0.0833
     35 O          64.5591   91.5561   10.4618 O.2     1  UNL1       -0.2751
     36 C          65.1221   91.7935   11.8316 C.2     1  UNL1        0.2226
     37 N          66.4169   92.5337   11.9925 N.am    1  UNL1       -0.2999
     38 H          66.7864   92.6895   12.8916 H       1  UNL1        0.1498
     39 C          67.1486   93.0364   10.7834 C.3     1  UNL1        0.1278
     40 C          66.7137   94.3089   10.1188 C.ar    1  UNL1        0.0320
     41 C          65.5471   95.0786   10.6633 C.ar    1  UNL1        0.0004
     42 C          65.1122   96.3511    9.9987 C.ar    1  UNL1       -0.0001
     43 C          65.8439   96.8538    8.7896 C.ar    1  UNL1        0.0031
     44 C          67.0105   96.0841    8.2452 C.ar    1  UNL1        0.0366
     45 C          67.4454   94.8116    8.9098 C.ar    1  UNL1        0.1362
     46 O          68.6120   94.0418    8.3652 O.3     1  UNL1       -0.4730
     47 C          69.0469   92.7694    9.0299 C.3     1  UNL1        0.2364
     48 C          68.3152   92.2667   10.2390 C.3     1  UNL1        0.1762
     49 O          68.7501   90.9942   10.9036 O.3     1  UNL1       -0.3788
     50 H          69.5120   90.6259   10.4296 H       1  UNL1        0.2106
     51 C          65.1471   90.9694   14.2954 C.3     1  UNL1        0.0371
     52 C          66.3568   91.7739   14.6687 C.ar    1  UNL1       -0.0025
     53 C          67.7216   91.3153   14.2479 C.ar    1  UNL1       -0.0011
     54 C          68.9313   92.1198   14.6212 C.ar    1  UNL1        0.0204
     55 C          68.7763   93.3829   15.4151 C.ar    1  UNL1        0.0989
     56 N          67.4115   93.8416   15.8359 N.ar    1  UNL1       -0.2426
     57 C          66.2018   93.0371   15.4627 C.ar    1  UNL1        0.0946
@<TRIPOS>BOND
     1    35    36    2
     2    36    37   am
     3    39    37    1
     4    39    40    1
     5    40    41   ar
     6    41    42   ar
     7    42    43   ar
     8    43    44   ar
     9    44    45   ar
    10    45    46    1
    11    46    47    1
    12    47    48    1
    13    48    49    1
    14    36    34    1
    15    34    51    1
    16    51    52    1
    17    52    53   ar
    18    53    54   ar
    19    54    55   ar
    20    55    56   ar
    21    56    57   ar
    22    34    33    1
    23    33    30    1
    24    30    31    1
    25    30     1    1
    26     1     2    1
    27     2     3    1
    28     3     4    1
    29     4     5    1
    30     5    17    1
    31    17    18    1
    32    18    19   ar
    33    19    20   ar
    34    20    21   ar
    35    21    23    1
    36    23    24   ar
    37    24    25   ar
    38    25    26   ar
    39    26    27    1
    40    26    28   ar
    41    28    29   ar
    42    21    22   ar
    43     5     6    1
    44     6     7    1
    45     7     8    1
    46     8     9    2
    47     8    10   am
    48    10    12    1
    49    12    13    1
    50    13    14    1
    51    13    15    1
    52    13    16    1
    53    48    39    1
    54    57    52   ar
    55     7     2    1
    56    45    40   ar
    57    22    18   ar
    58    29    23   ar
    59    37    38    1
    60    49    50    1
    61    31    32    1
    62    10    11    1
@<TRIPOS>MOLECULE
*****
 57 62 0 0 0
SMALL
GASTEIGER

@<TRIPOS>ATOM
      1 C          62.8734   89.7180   11.7447 C.3     1  UNL1        0.1021
      2 N          61.9495   89.5406   10.5764 N.3     1  UNL1       -0.2621
      3 C          61.4132   90.7416    9.8552 C.3     1  UNL1        0.0901
      4 C          60.4892   90.5642    8.6869 C.3     1  UNL1        0.0899
      5 N          60.1016   89.1858    8.2398 N.3     1  UNL1       -0.2661
      6 C          60.6379   87.9849    8.9610 C.3     1  UNL1        0.0980
      7 C          61.5618   88.1623   10.1293 C.3     1  UNL1        0.1510
      8 C          62.0981   86.9614   10.8505 C.2     1  UNL1        0.2386
      9 O          62.7931   87.1270   12.1694 O.2     1  UNL1       -0.2736
     10 N          61.9395   85.5948   10.2527 N.am    1  UNL1       -0.2961
     11 H          61.4834   85.4860    9.3870 H       1  UNL1        0.1497
     12 C          62.4758   84.3938   10.9739 C.3     1  UNL1        0.1939
     13 C          63.4538   83.4840   10.2914 C.3     1  UNL1        0.4154
     14 F          64.4318   82.5741    9.6090 F       1  UNL1       -0.1682
     15 F          63.8930   84.6162    9.4110 F       1  UNL1       -0.1682
     16 F          63.0147   82.3517   11.1718 F       1  UNL1       -0.1682
     17 C          59.1777   89.0084    7.0716 C.3     1  UNL1        0.1008
     18 C          59.1013   90.0642    6.0087 C.ar    1  UNL1        0.0129
     19 C          57.8584   90.7727    5.5575 C.ar    1  UNL1        0.0176
     20 C          58.2432   91.7432    4.4805 C.ar    1  UNL1        0.0799
     21 N          59.7239   91.6346    4.2661 N.ar    1  UNL1       -0.3038
     22 C          60.2541   90.5970    5.2106 C.ar    1  UNL1        0.0772
     23 C          60.5324   92.4250    3.2803 C.ar    1  UNL1        0.0641
     24 C          61.9848   92.1100    3.0778 C.ar    1  UNL1        0.0184
     25 C          62.7933   92.9003    2.0919 C.ar    1  UNL1        0.0129
     26 C          62.1492   94.0056    1.3087 C.ar    1  UNL1        0.0578
     27 CL         62.9576   94.7959    0.3229 Cl      1  UNL1       -0.0822
     28 C          60.6966   94.3206    1.5113 C.ar    1  UNL1        0.0129
     29 C          59.8883   93.5302    2.4970 C.ar    1  UNL1        0.0184
     30 C          63.7455   90.9353   11.8331 C.3     1  UNL1        0.1269
     31 O          64.0990   91.6965   10.5899 O.3     1  UNL1       -0.3830
     32 H          63.6857   91.2716    9.8221 H       1  UNL1        0.2104
     33 C          64.2641   91.3912   13.1647 C.3     1  UNL1        0.0401
     34 C          64.9134   90.4083   14.0932 C.3     1  UNL1        0.0833
     35 O          62.6407   89.6304   15.0829 O.2     1  UNL1       -0.2751
     36 C          64.0843   89.3617   14.7768 C.2     1  UNL1        0.2226
     37 N          64.6988   88.0464   15.1542 N.am    1  UNL1       -0.2999
     38 H          65.6463   87.8701   14.9533 H       1  UNL1        0.1498
     39 C          63.8697   86.9998   15.8377 C.3     1  UNL1        0.1278
     40 C          63.8372   85.5998   15.3004 C.ar    1  UNL1        0.0320
     41 C          64.6337   85.2463   14.0795 C.ar    1  UNL1        0.0004
     42 C          64.6012   83.8462   13.5422 C.ar    1  UNL1       -0.0001
     43 C          63.7721   82.7996   14.2257 C.ar    1  UNL1        0.0031
     44 C          62.9755   83.1531   15.4466 C.ar    1  UNL1        0.0366
     45 C          63.0081   84.5532   15.9839 C.ar    1  UNL1        0.1362
     46 O          62.2115   84.9067   17.2048 O.3     1  UNL1       -0.4730
     47 C          62.2440   86.3067   17.7421 C.3     1  UNL1        0.2364
     48 C          63.0732   87.3533   17.0585 C.3     1  UNL1        0.1762
     49 O          63.1057   88.7534   17.5959 O.3     1  UNL1       -0.3788
     50 H          62.5405   88.8112   18.3820 H       1  UNL1        0.2106
     51 C          66.3919   90.4719   14.3383 C.3     1  UNL1        0.0371
     52 C          67.0315   91.7699   14.7335 C.ar    1  UNL1       -0.0025
     53 C          68.0443   91.8008   15.8395 C.ar    1  UNL1       -0.0011
     54 C          68.6838   93.0988   16.2347 C.ar    1  UNL1        0.0204
     55 C          68.3106   94.3658   15.5239 C.ar    1  UNL1        0.0989
     56 N          67.2979   94.3349   14.4178 N.ar    1  UNL1       -0.2426
     57 C          66.6583   93.0370   14.0226 C.ar    1  UNL1        0.0946
@<TRIPOS>BOND
     1    35    36    2
     2    36    37   am
     3    39    37    1
     4    39    40    1
     5    40    41   ar
     6    41    42   ar
     7    42    43   ar
     8    43    44   ar
     9    44    45   ar
    10    45    46    1
    11    46    47    1
    12    47    48    1
    13    48    49    1
    14    36    34    1
    15    34    51    1
    16    51    52    1
    17    52    53   ar
    18    53    54   ar
    19    54    55   ar
    20    55    56   ar
    21    56    57   ar
    22    34    33    1
    23    33    30    1
    24    30    31    1
    25    30     1    1
    26     1     2    1
    27     2     3    1
    28     3     4    1
    29     4     5    1
    30     5    17    1
    31    17    18    1
    32    18    19   ar
    33    19    20   ar
    34    20    21   ar
    35    21    23    1
    36    23    24   ar
    37    24    25   ar
    38    25    26   ar
    39    26    27    1
    40    26    28   ar
    41    28    29   ar
    42    21    22   ar
    43     5     6    1
    44     6     7    1
    45     7     8    1
    46     8     9    2
    47     8    10   am
    48    10    12    1
    49    12    13    1
    50    13    14    1
    51    13    15    1
    52    13    16    1
    53    48    39    1
    54    57    52   ar
    55     7     2    1
    56    45    40   ar
    57    22    18   ar
    58    29    23   ar
    59    37    38    1
    60    49    50    1
    61    31    32    1
    62    10    11    1
@<TRIPOS>MOLECULE
*****
 57 62 0 0 0
SMALL
GASTEIGER

@<TRIPOS>ATOM
      1 C          62.6965   89.0123   11.9245 C.3     1  UNL1        0.1021
      2 N          61.7940   88.9572   10.7277 N.3     1  UNL1       -0.2621
      3 C          61.0470   90.1838   10.2946 C.3     1  UNL1        0.0901
      4 C          60.1445   90.1287    9.0977 C.3     1  UNL1        0.0899
      5 N          59.9890   88.8471    8.3339 N.3     1  UNL1       -0.2661
      6 C          60.7361   87.6206    8.7670 C.3     1  UNL1        0.0980
      7 C          61.6385   87.6757    9.9639 C.3     1  UNL1        0.1510
      8 C          62.3856   86.4492   10.3970 C.2     1  UNL1        0.2386
      9 O          62.9212   85.4956    9.3704 O.2     1  UNL1       -0.2736
     10 N          62.5970   86.1761   11.8568 N.am    1  UNL1       -0.2961
     11 H          62.2454   86.8020   12.5306 H       1  UNL1        0.1497
     12 C          63.3440   84.9497   12.2899 C.3     1  UNL1        0.1939
     13 C          62.5991   83.6790   12.5739 C.3     1  UNL1        0.4154
     14 F          61.8542   82.4084   12.8580 F       1  UNL1       -0.1682
     15 F          63.0231   83.1328   11.2428 F       1  UNL1       -0.1682
     16 F          62.1751   84.2251   13.9051 F       1  UNL1       -0.1682
     17 C          59.0865   88.7920    7.1371 C.3     1  UNL1        0.1008
     18 C          59.1010   89.9080    6.1348 C.ar    1  UNL1        0.0129
     19 C          57.9304   90.7641    5.7516 C.ar    1  UNL1        0.0176
     20 C          58.3944   91.7490    4.7199 C.ar    1  UNL1        0.0799
     21 N          59.8519   91.5016    4.4654 N.ar    1  UNL1       -0.3038
     22 C          60.2885   90.3638    5.3399 C.ar    1  UNL1        0.0772
     23 C          60.7202   92.2591    3.5051 C.ar    1  UNL1        0.0641
     24 C          60.1576   93.4209    2.7412 C.ar    1  UNL1        0.0184
     25 C          61.0259   94.1784    1.7809 C.ar    1  UNL1        0.0129
     26 C          62.4569   93.7740    1.5844 C.ar    1  UNL1        0.0578
     27 CL         63.3252   94.5315    0.6241 Cl      1  UNL1       -0.0822
     28 C          63.0196   92.6121    2.3483 C.ar    1  UNL1        0.0129
     29 C          62.1513   91.8547    3.3086 C.ar    1  UNL1        0.0184
     30 C          62.4686   90.0445   12.9888 C.3     1  UNL1        0.1269
     31 O          61.6163   89.7187   14.1794 O.3     1  UNL1       -0.3830
     32 H          61.2930   88.8071   14.1058 H       1  UNL1        0.2104
     33 C          63.0930   91.4025   12.8625 C.3     1  UNL1        0.0401
     34 C          64.4493   91.6618   13.4482 C.3     1  UNL1        0.0833
     35 O          66.9312   92.2238   12.9244 O.2     1  UNL1       -0.2751
     36 C          65.4690   92.4351   12.6656 C.2     1  UNL1        0.2226
     37 N          65.0262   93.4197   11.6242 N.am    1  UNL1       -0.2999
     38 H          64.0664   93.5584   11.4543 H       1  UNL1        0.1498
     39 C          66.0457   94.1930   10.8416 C.3     1  UNL1        0.1278
     40 C          67.0515   93.4676    9.9977 C.ar    1  UNL1        0.0320
     41 C          67.0378   91.9690    9.9364 C.ar    1  UNL1        0.0004
     42 C          68.0436   91.2436    9.0924 C.ar    1  UNL1       -0.0001
     43 C          69.0632   92.0169    8.3098 C.ar    1  UNL1        0.0031
     44 C          69.0769   93.5156    8.3711 C.ar    1  UNL1        0.0366
     45 C          68.0711   94.2409    9.2150 C.ar    1  UNL1        0.1362
     46 O          68.0848   95.7397    9.2763 O.3     1  UNL1       -0.4730
     47 C          67.0790   96.4650   10.1202 C.3     1  UNL1        0.2364
     48 C          66.0594   95.6916   10.9029 C.3     1  UNL1        0.1762
     49 O          65.0536   96.4170   11.7468 O.3     1  UNL1       -0.3788
     50 H          65.2005   97.3731   11.6748 H       1  UNL1        0.2106
     51 C          64.7861   91.1477   14.8166 C.3     1  UNL1        0.0371
     52 C          64.3323   89.7813   15.2371 C.ar    1  UNL1       -0.0025
     53 C          64.8633   88.5660   14.5364 C.ar    1  UNL1       -0.0011
     54 C          64.4095   87.1995   14.9571 C.ar    1  UNL1        0.0204
     55 C          63.4246   87.0484   16.0783 C.ar    1  UNL1        0.0989
     56 N          62.8936   88.2638   16.7790 N.ar    1  UNL1       -0.2426
     57 C          63.3474   89.6302   16.3584 C.ar    1  UNL1        0.0946
@<TRIPOS>BOND
     1    35    36    2
     2    36    37   am
     3    39    37    1
     4    39    40    1
     5    40    41   ar
     6    41    42   ar
     7    42    43   ar
     8    43    44   ar
     9    44    45   ar
    10    45    46    1
    11    46    47    1
    12    47    48    1
    13    48    49    1
    14    36    34    1
    15    34    51    1
    16    51    52    1
    17    52    53   ar
    18    53    54   ar
    19    54    55   ar
    20    55    56   ar
    21    56    57   ar
    22    34    33    1
    23    33    30    1
    24    30    31    1
    25    30     1    1
    26     1     2    1
    27     2     3    1
    28     3     4    1
    29     4     5    1
    30     5    17    1
    31    17    18    1
    32    18    19   ar
    33    19    20   ar
    34    20    21   ar
    35    21    23    1
    36    23    24   ar
    37    24    25   ar
    38    25    26   ar
    39    26    27    1
    40    26    28   ar
    41    28    29   ar
    42    21    22   ar
    43     5     6    1
    44     6     7    1
    45     7     8    1
    46     8     9    2
    47     8    10   am
    48    10    12    1
    49    12    13    1
    50    13    14    1
    51    13    15    1
    52    13    16    1
    53    48    39    1
    54    57    52   ar
    55     7     2    1
    56    45    40   ar
    57    22    18   ar
    58    29    23   ar
    59    37    38    1
    60    49    50    1
    61    31    32    1
    62    10    11    1
@<TRIPOS>MOLECULE
*****
 57 62 0 0 0
SMALL
GASTEIGER

@<TRIPOS>ATOM
      1 C          61.0404   86.0390    8.9118 C.3     1  UNL1        0.1021
      2 N          61.3272   87.3303    9.6190 N.3     1  UNL1       -0.2621
      3 C          62.2866   87.3571   10.7719 C.3     1  UNL1        0.0901
      4 C          62.5734   88.6485   11.4790 C.3     1  UNL1        0.0899
      5 N          61.9008   89.9131   11.0334 N.3     1  UNL1       -0.2661
      6 C          60.9415   89.8863    9.8806 C.3     1  UNL1        0.0980
      7 C          60.6547   88.5949    9.1734 C.3     1  UNL1        0.1510
      8 C          59.6954   88.5681    8.0206 C.2     1  UNL1        0.2386
      9 O          58.7985   87.3828    7.8187 O.2     1  UNL1       -0.2736
     10 N          59.6329   89.7265    7.0697 N.am    1  UNL1       -0.2961
     11 H          60.2215   90.5045    7.2023 H       1  UNL1        0.1497
     12 C          58.6736   89.6997    5.9170 C.3     1  UNL1        0.1939
     13 C          58.4019   90.9525    5.1380 C.3     1  UNL1        0.4154
     14 F          58.1303   92.2053    4.3590 F       1  UNL1       -0.1682
     15 F          56.9270   90.7059    5.2557 F       1  UNL1       -0.1682
     16 F          59.8768   91.1991    5.0203 F       1  UNL1       -0.1682
     17 C          62.1876   91.2044   11.7406 C.3     1  UNL1        0.1008
     18 C          63.6016   91.6857   11.8792 C.ar    1  UNL1        0.0129
     19 C          64.4689   92.2046   10.7708 C.ar    1  UNL1        0.0176
     20 C          65.7998   92.5721   11.3570 C.ar    1  UNL1        0.0799
     21 N          65.7549   92.2804   12.8277 N.ar    1  UNL1       -0.3038
     22 C          64.3964   91.7326   13.1504 C.ar    1  UNL1        0.0772
     23 C          66.8725   92.4983   13.8042 C.ar    1  UNL1        0.0641
     24 C          66.6230   93.2607   15.0717 C.ar    1  UNL1        0.0184
     25 C          67.7406   93.4786   16.0482 C.ar    1  UNL1        0.0129
     26 C          69.1076   92.9340   15.7573 C.ar    1  UNL1        0.0578
     27 CL         70.2251   93.1519   16.7338 Cl      1  UNL1       -0.0822
     28 C          69.3571   92.1715   14.4898 C.ar    1  UNL1        0.0129
     29 C          68.2396   91.9537   13.5133 C.ar    1  UNL1        0.0184
     30 C          62.1721   85.1737    8.4421 C.3     1  UNL1        0.1269
     31 O          62.0412   84.3945    7.1671 O.3     1  UNL1       -0.3830
     32 H          61.1702   84.5613    6.7742 H       1  UNL1        0.2104
     33 C          63.4347   85.0878    9.2474 C.3     1  UNL1        0.0401
     34 C          63.5666   84.0553   10.3274 C.3     1  UNL1        0.0833
     35 O          61.6205   84.5573   11.9738 O.2     1  UNL1       -0.2751
     36 C          63.0843   84.3561   11.7156 C.2     1  UNL1        0.2226
     37 N          64.0659   84.4557   12.8454 N.am    1  UNL1       -0.2999
     38 H          65.0266   84.3236   12.6759 H       1  UNL1        0.1498
     39 C          63.5836   84.7565   14.2335 C.3     1  UNL1        0.1278
     40 C          63.6613   86.1560   14.7677 C.ar    1  UNL1        0.0320
     41 C          64.2212   87.2547   13.9138 C.ar    1  UNL1        0.0004
     42 C          64.2989   88.6542   14.4479 C.ar    1  UNL1       -0.0001
     43 C          63.8166   88.9550   15.8360 C.ar    1  UNL1        0.0031
     44 C          63.2567   87.8563   16.6900 C.ar    1  UNL1        0.0366
     45 C          63.1790   86.4568   16.1558 C.ar    1  UNL1        0.1362
     46 O          62.6191   85.3581   17.0099 O.3     1  UNL1       -0.4730
     47 C          62.5414   83.9585   16.4757 C.3     1  UNL1        0.2364
     48 C          63.0237   83.6578   15.0875 C.3     1  UNL1        0.1762
     49 O          62.9460   82.2583   14.5533 O.3     1  UNL1       -0.3788
     50 H          62.5625   81.6757   15.2274 H       1  UNL1        0.2106
     51 C          64.1808   82.7219   10.0193 C.3     1  UNL1        0.0371
     52 C          63.5656   81.4683   10.5668 C.ar    1  UNL1       -0.0025
     53 C          63.2214   80.3369    9.6440 C.ar    1  UNL1       -0.0011
     54 C          62.6061   79.0832   10.1915 C.ar    1  UNL1        0.0204
     55 C          62.3350   78.9609   11.6617 C.ar    1  UNL1        0.0989
     56 N          62.6792   80.0923   12.5845 N.ar    1  UNL1       -0.2426
     57 C          63.2944   81.3460   12.0370 C.ar    1  UNL1        0.0946
@<TRIPOS>BOND
     1    35    36    2
     2    36    37   am
     3    39    37    1
     4    39    40    1
     5    40    41   ar
     6    41    42   ar
     7    42    43   ar
     8    43    44   ar
     9    44    45   ar
    10    45    46    1
    11    46    47    1
    12    47    48    1
    13    48    49    1
    14    36    34    1
    15    34    51    1
    16    51    52    1
    17    52    53   ar
    18    53    54   ar
    19    54    55   ar
    20    55    56   ar
    21    56    57   ar
    22    34    33    1
    23    33    30    1
    24    30    31    1
    25    30     1    1
    26     1     2    1
    27     2     3    1
    28     3     4    1
    29     4     5    1
    30     5    17    1
    31    17    18    1
    32    18    19   ar
    33    19    20   ar
    34    20    21   ar
    35    21    23    1
    36    23    24   ar
    37    24    25   ar
    38    25    26   ar
    39    26    27    1
    40    26    28   ar
    41    28    29   ar
    42    21    22   ar
    43     5     6    1
    44     6     7    1
    45     7     8    1
    46     8     9    2
    47     8    10   am
    48    10    12    1
    49    12    13    1
    50    13    14    1
    51    13    15    1
    52    13    16    1
    53    48    39    1
    54    57    52   ar
    55     7     2    1
    56    45    40   ar
    57    22    18   ar
    58    29    23   ar
    59    37    38    1
    60    49    50    1
    61    31    32    1
    62    10    11    1
@<TRIPOS>MOLECULE
*****
 57 62 0 0 0
SMALL
GASTEIGER

@<TRIPOS>ATOM
      1 C          63.1333   90.6006   11.9556 C.3     1  UNL1        0.1021
      2 N          63.4565   89.3834   12.7704 N.3     1  UNL1       -0.2621
      3 C          63.0724   88.0223   12.2702 C.3     1  UNL1        0.0901
      4 C          63.3956   86.8051   13.0850 C.3     1  UNL1        0.0899
      5 N          64.1030   86.9489   14.3999 N.3     1  UNL1       -0.2661
      6 C          64.4871   88.3099   14.9001 C.3     1  UNL1        0.0980
      7 C          64.1638   89.5271   14.0853 C.3     1  UNL1        0.1510
      8 C          64.5479   90.8881   14.5854 C.2     1  UNL1        0.2386
      9 O          63.6145   91.6497   15.4791 O.2     1  UNL1       -0.2736
     10 N          65.8655   91.4875   14.1919 N.am    1  UNL1       -0.2961
     11 H          66.4782   90.9876   13.6054 H       1  UNL1        0.1497
     12 C          66.2496   92.8485   14.6920 C.3     1  UNL1        0.1939
     13 C          67.4450   93.0101   15.5836 C.3     1  UNL1        0.4154
     14 F          68.6404   93.1717   16.4753 F       1  UNL1       -0.1682
     15 F          68.3251   93.1541   14.3776 F       1  UNL1       -0.1682
     16 F          66.5649   92.8661   16.7897 F       1  UNL1       -0.1682
     17 C          64.4262   85.7316   15.2147 C.3     1  UNL1        0.1008
     18 C          63.7568   84.4246   14.9084 C.ar    1  UNL1        0.0129
     19 C          62.7682   83.7138   15.7844 C.ar    1  UNL1        0.0176
     20 C          62.3589   82.4489   15.0898 C.ar    1  UNL1        0.0799
     21 N          63.0946   82.3780   13.7845 N.ar    1  UNL1       -0.3038
     22 C          63.9586   83.5990   13.6724 C.ar    1  UNL1        0.0772
     23 C          62.9855   81.2789   12.7695 C.ar    1  UNL1        0.0641
     24 C          62.6243   79.8896   13.2044 C.ar    1  UNL1        0.0184
     25 C          62.5151   78.7905   12.1894 C.ar    1  UNL1        0.0129
     26 C          62.7673   79.0809   10.7396 C.ar    1  UNL1        0.0578
     27 CL         62.6582   77.9818    9.7246 Cl      1  UNL1       -0.0822
     28 C          63.1286   80.4703   10.3047 C.ar    1  UNL1        0.0129
     29 C          63.2377   81.5692   11.3196 C.ar    1  UNL1        0.0184
     30 C          62.0823   90.5309   10.8876 C.3     1  UNL1        0.1269
     31 O          60.8638   91.4012   10.9764 O.3     1  UNL1       -0.3830
     32 H          60.9122   91.9443   11.7787 H       1  UNL1        0.2104
     33 C          62.2497   89.5907    9.7309 C.3     1  UNL1        0.0401
     34 C          61.0457   88.9596    9.0969 C.3     1  UNL1        0.0833
     35 O          59.1760   90.7251    8.7258 O.2     1  UNL1       -0.2751
     36 C          60.1803   89.7600    8.1691 C.2     1  UNL1        0.2226
     37 N          60.3193   89.5952    6.6847 N.am    1  UNL1       -0.2999
     38 H          60.9784   88.9617    6.3193 H       1  UNL1        0.1498
     39 C          59.4539   90.3954    5.7570 C.3     1  UNL1        0.1278
     40 C          60.0801   91.2198    4.6715 C.ar    1  UNL1        0.0320
     41 C          61.5715   91.2439    4.5137 C.ar    1  UNL1        0.0004
     42 C          62.1976   92.0683    3.4281 C.ar    1  UNL1       -0.0001
     43 C          61.3323   92.8685    2.5004 C.ar    1  UNL1        0.0031
     44 C          59.8409   92.8445    2.6582 C.ar    1  UNL1        0.0366
     45 C          59.2148   92.0201    3.7437 C.ar    1  UNL1        0.1362
     46 O          57.7232   91.9960    3.9015 O.3     1  UNL1       -0.4730
     47 C          57.0971   91.1716    4.9870 C.3     1  UNL1        0.2364
     48 C          57.9625   90.3713    5.9148 C.3     1  UNL1        0.1762
     49 O          57.3364   89.5470    7.0003 O.3     1  UNL1       -0.3788
     50 H          56.3718   89.6425    6.9633 H       1  UNL1        0.2106
     51 C          60.7070   87.5282    9.3906 C.3     1  UNL1        0.0371
     52 C          61.1211   86.4483    8.4355 C.ar    1  UNL1       -0.0025
     53 C          62.5164   85.8997    8.4830 C.ar    1  UNL1       -0.0011
     54 C          62.9305   84.8197    7.5278 C.ar    1  UNL1        0.0204
     55 C          61.9494   84.2884    6.5253 C.ar    1  UNL1        0.0989
     56 N          60.5542   84.8371    6.4778 N.ar    1  UNL1       -0.2426
     57 C          60.1400   85.9170    7.4329 C.ar    1  UNL1        0.0946
@<TRIPOS>BOND
     1    35    36    2
     2    36    37   am
     3    39    37    1
     4    39    40    1
     5    40    41   ar
     6    41    42   ar
     7    42    43   ar
     8    43    44   ar
     9    44    45   ar
    10    45    46    1
    11    46    47    1
    12    47    48    1
    13    48    49    1
    14    36    34    1
    15    34    51    1
    16    51    52    1
    17    52    53   ar
    18    53    54   ar
    19    54    55   ar
    20    55    56   ar
    21    56    57   ar
    22    34    33    1
    23    33    30    1
    24    30    31    1
    25    30     1    1
    26     1     2    1
    27     2     3    1
    28     3     4    1
    29     4     5    1
    30     5    17    1
    31    17    18    1
    32    18    19   ar
    33    19    20   ar
    34    20    21   ar
    35    21    23    1
    36    23    24   ar
    37    24    25   ar
    38    25    26   ar
    39    26    27    1
    40    26    28   ar
    41    28    29   ar
    42    21    22   ar
    43     5     6    1
    44     6     7    1
    45     7     8    1
    46     8     9    2
    47     8    10   am
    48    10    12    1
    49    12    13    1
    50    13    14    1
    51    13    15    1
    52    13    16    1
    53    48    39    1
    54    57    52   ar
    55     7     2    1
    56    45    40   ar
    57    22    18   ar
    58    29    23   ar
    59    37    38    1
    60    49    50    1
    61    31    32    1
    62    10    11    1
