@<TRIPOS>MOLECULE
*****
 40 43 0 0 0
SMALL
GASTEIGER

@<TRIPOS>ATOM
      1 C          60.4838   89.0992    9.0664 C.ar    1  UNL1        0.1368
      2 C          61.4506   88.0100    9.4259 C.ar    1  UNL1        0.0691
      3 C          61.3213   86.6547    8.7965 C.ar    1  UNL1        0.1432
      4 N          60.2253   86.3884    7.8076 N.ar    1  UNL1       -0.2085
      5 C          59.2586   87.4775    7.4481 C.ar    1  UNL1        0.2012
      6 N          59.3878   88.8329    8.0775 N.ar    1  UNL1       -0.2088
      7 N          62.2880   85.5655    9.1560 N.am    1  UNL1       -0.2261
      8 C          63.1424   84.9402    8.0934 C.3     1  UNL1        0.1231
      9 C          62.4004   85.1016   10.5780 C.2     1  UNL1        0.3126
     10 O          61.5461   85.7269   11.6406 O.2     1  UNL1       -0.2519
     11 N          63.3672   84.0125   10.9374 N.am    1  UNL1       -0.2663
     12 H          63.9279   83.6021   10.2400 H       1  UNL1        0.1565
     13 C          63.4796   83.5486   12.3595 C.ar    1  UNL1        0.0788
     14 C          63.3035   82.0963   12.6908 C.ar    1  UNL1        0.1060
     15 CL         63.0150   81.1079   11.6001 Cl      1  UNL1       -0.0777
     16 C          63.4159   81.6325   14.1128 C.ar    1  UNL1        0.1535
     17 C          63.7045   82.6210   15.2035 C.ar    1  UNL1        0.0756
     18 C          63.8806   84.0733   14.8722 C.ar    1  UNL1        0.1535
     19 C          63.7681   84.5371   13.4502 C.ar    1  UNL1        0.1060
     20 CL         63.9442   85.9895   13.1188 Cl      1  UNL1       -0.0777
     21 O          63.2398   80.1802   14.4442 O.3     1  UNL1       -0.4704
     22 C          61.9825   79.4667   14.0442 C.3     1  UNL1        0.2525
     23 O          64.1691   85.0618   15.9629 O.3     1  UNL1       -0.4704
     24 C          63.0386   85.7270   16.6905 C.3     1  UNL1        0.2525
     25 N          60.6131   90.4546    9.6958 N.pl3   1  UNL1       -0.2978
     26 H          59.9331   91.1450    9.5219 H       1  UNL1        0.1536
     27 C          64.1089   91.3652   12.3791 C.ar    1  UNL1        0.0480
     28 C          64.1559   91.7491   10.9298 C.ar    1  UNL1        0.0158
     29 C          62.9906   91.4456   10.0354 C.ar    1  UNL1        0.0159
     30 C          61.7784   90.7581   10.5902 C.ar    1  UNL1        0.0494
     31 C          61.7314   90.3743   12.0395 C.ar    1  UNL1        0.0159
     32 C          62.8967   90.6778   12.9339 C.ar    1  UNL1        0.0158
     33 N          67.6048   92.2759   15.0623 N.3     1  UNL1       -0.2698
     34 C          66.2552   92.0006   15.6562 C.3     1  UNL1        0.0938
     35 C          65.0899   91.6971   14.7618 C.3     1  UNL1        0.1081
     36 N          65.2742   91.6688   13.2735 N.pl3   1  UNL1       -0.3046
     37 C          66.6238   91.9440   12.6795 C.3     1  UNL1        0.1081
     38 C          67.7891   92.2476   13.5739 C.3     1  UNL1        0.0938
     39 C          69.3304   93.9697   16.0126 C.3     1  UNL1        0.0188
     40 C          68.7701   92.5794   15.9567 C.3     1  UNL1        0.0722
@<TRIPOS>BOND
     1    39    40    1
     2    40    33    1
     3    33    34    1
     4    34    35    1
     5    35    36    1
     6    36    27    1
     7    27    28   ar
     8    28    29   ar
     9    29    30   ar
    10    30    25    1
    11    25     1    1
    12     1     2   ar
    13     2     3   ar
    14     3     7    1
    15     7     8    1
    16     7     9   am
    17     9    10    2
    18     9    11   am
    19    11    13    1
    20    13    14   ar
    21    14    15    1
    22    14    16   ar
    23    16    21    1
    24    21    22    1
    25    16    17   ar
    26    17    18   ar
    27    18    23    1
    28    23    24    1
    29    18    19   ar
    30    19    20    1
    31     3     4   ar
    32     4     5   ar
    33     5     6   ar
    34    30    31   ar
    35    31    32   ar
    36    36    37    1
    37    37    38    1
    38    38    33    1
    39    32    27   ar
    40     6     1   ar
    41    19    13   ar
    42    25    26    1
    43    11    12    1
@<TRIPOS>MOLECULE
*****
 40 43 0 0 0
SMALL
GASTEIGER

@<TRIPOS>ATOM
      1 C          60.4749   89.1029    9.0569 C.ar    1  UNL1        0.1368
      2 C          61.4407   88.0130    9.4169 C.ar    1  UNL1        0.0691
      3 C          61.3117   86.6582    8.7863 C.ar    1  UNL1        0.1432
      4 N          60.2170   86.3931    7.7957 N.ar    1  UNL1       -0.2085
      5 C          59.2512   87.4829    7.4357 C.ar    1  UNL1        0.2012
      6 N          59.3802   88.8378    8.0664 N.ar    1  UNL1       -0.2088
      7 N          62.2775   85.5683    9.1462 N.am    1  UNL1       -0.2261
      8 C          63.1274   84.9380    8.0830 C.3     1  UNL1        0.1231
      9 C          62.3934   85.1087   10.5693 C.2     1  UNL1        0.3126
     10 O          61.5435   85.7389   11.6326 O.2     1  UNL1       -0.2519
     11 N          63.3591   84.0189   10.9292 N.am    1  UNL1       -0.2663
     12 H          63.9169   83.6052   10.2314 H       1  UNL1        0.1565
     13 C          63.4750   83.5592   12.3524 C.ar    1  UNL1        0.0788
     14 C          63.7564   84.5523   13.4407 C.ar    1  UNL1        0.1060
     15 CL         63.9219   86.0051   13.1060 Cl      1  UNL1       -0.0777
     16 C          63.8723   84.0927   14.8638 C.ar    1  UNL1        0.1535
     17 C          63.7068   82.6399   15.1986 C.ar    1  UNL1        0.0756
     18 C          63.4254   81.6468   14.1103 C.ar    1  UNL1        0.1535
     19 C          63.3095   82.1065   12.6872 C.ar    1  UNL1        0.1060
     20 CL         63.0281   81.1133   11.5987 Cl      1  UNL1       -0.0777
     21 O          64.1537   85.0858   15.9522 O.3     1  UNL1       -0.4704
     22 C          63.0195   85.7075   16.7118 C.3     1  UNL1        0.2525
     23 O          63.2599   80.1940   14.4450 O.3     1  UNL1       -0.4704
     24 C          61.9838   79.4855   14.0997 C.3     1  UNL1        0.2525
     25 N          60.6039   90.4577    9.6876 N.pl3   1  UNL1       -0.2978
     26 H          59.9251   91.1488    9.5124 H       1  UNL1        0.1536
     27 C          64.0940   91.3632   12.3801 C.ar    1  UNL1        0.0480
     28 C          62.8745   90.6882   12.9343 C.ar    1  UNL1        0.0158
     29 C          61.7112   90.3863   12.0368 C.ar    1  UNL1        0.0159
     30 C          61.7673   90.7595   10.5851 C.ar    1  UNL1        0.0494
     31 C          62.9867   91.4346   10.0309 C.ar    1  UNL1        0.0159
     32 C          64.1501   91.7364   10.9284 C.ar    1  UNL1        0.0158
     33 N          67.5840   92.2687   15.0726 N.3     1  UNL1       -0.2698
     34 C          66.2313   92.0008   15.6627 C.3     1  UNL1        0.0938
     35 C          65.0679   91.6989   14.7652 C.3     1  UNL1        0.1081
     36 N          65.2573   91.6650   13.2776 N.pl3   1  UNL1       -0.3046
     37 C          66.6101   91.9330   12.6875 C.3     1  UNL1        0.1081
     38 C          67.7734   92.2348   13.5851 C.3     1  UNL1        0.0938
     39 C          69.2965   93.9645   16.0430 C.3     1  UNL1        0.0188
     40 C          68.7474   92.5705   15.9701 C.3     1  UNL1        0.0722
@<TRIPOS>BOND
     1    39    40    1
     2    40    33    1
     3    33    34    1
     4    34    35    1
     5    35    36    1
     6    36    27    1
     7    27    28   ar
     8    28    29   ar
     9    29    30   ar
    10    30    25    1
    11    25     1    1
    12     1     2   ar
    13     2     3   ar
    14     3     7    1
    15     7     8    1
    16     7     9   am
    17     9    10    2
    18     9    11   am
    19    11    13    1
    20    13    14   ar
    21    14    15    1
    22    14    16   ar
    23    16    21    1
    24    21    22    1
    25    16    17   ar
    26    17    18   ar
    27    18    23    1
    28    23    24    1
    29    18    19   ar
    30    19    20    1
    31     3     4   ar
    32     4     5   ar
    33     5     6   ar
    34    30    31   ar
    35    31    32   ar
    36    36    37    1
    37    37    38    1
    38    38    33    1
    39    32    27   ar
    40     6     1   ar
    41    19    13   ar
    42    25    26    1
    43    11    12    1
@<TRIPOS>MOLECULE
*****
 40 43 0 0 0
SMALL
GASTEIGER

@<TRIPOS>ATOM
      1 C          59.3877   88.8323    7.6476 C.ar    1  UNL1        0.1368
      2 C          59.8027   89.6118    8.8601 C.ar    1  UNL1        0.0691
      3 C          60.6434   88.9614    9.9184 C.ar    1  UNL1        0.1432
      4 N          61.0693   87.5314    9.7641 N.ar    1  UNL1       -0.2085
      5 C          60.6544   86.7519    8.5516 C.ar    1  UNL1        0.2012
      6 N          59.8136   87.4024    7.4933 N.ar    1  UNL1       -0.2088
      7 N          61.0584   89.7408   11.1310 N.am    1  UNL1       -0.2261
      8 C          60.0530   90.0605   12.1973 C.3     1  UNL1        0.1231
      9 C          62.4786   90.2007   11.2771 C.2     1  UNL1        0.3126
     10 O          63.4840   89.8811   10.2108 O.2     1  UNL1       -0.2519
     11 N          62.8935   90.9801   12.4897 N.am    1  UNL1       -0.2663
     12 H          62.2337   91.1899   13.1895 H       1  UNL1        0.1565
     13 C          64.3138   91.4400   12.6359 C.ar    1  UNL1        0.0788
     14 C          65.0931   91.0877   13.8682 C.ar    1  UNL1        0.1060
     15 CL         64.4522   90.2756   14.9543 Cl      1  UNL1       -0.0777
     16 C          66.5133   91.5476   14.0144 C.ar    1  UNL1        0.1535
     17 C          67.1543   92.3597   12.9283 C.ar    1  UNL1        0.0756
     18 C          66.3750   92.7120   11.6960 C.ar    1  UNL1        0.1535
     19 C          64.9548   92.2521   11.5498 C.ar    1  UNL1        0.1060
     20 CL         64.1754   92.6044   10.3175 Cl      1  UNL1       -0.0777
     21 O          67.2927   91.1954   15.2467 O.3     1  UNL1       -0.4704
     22 C          67.9529   92.2758   16.0509 C.3     1  UNL1        0.2525
     23 O          67.0160   93.5241   10.6099 O.3     1  UNL1       -0.4704
     24 C          67.9110   92.8602    9.6058 C.3     1  UNL1        0.2525
     25 N          58.5469   89.4828    6.5893 N.pl3   1  UNL1       -0.2978
     26 H          57.5808   89.2984    6.5458 H       1  UNL1        0.1536
     27 C          60.4403   92.2773    3.6134 C.ar    1  UNL1        0.0480
     28 C          61.2848   91.2768    4.3454 C.ar    1  UNL1        0.0158
     29 C          60.6537   90.3453    5.3373 C.ar    1  UNL1        0.0159
     30 C          59.1781   90.4143    5.5974 C.ar    1  UNL1        0.0494
     31 C          58.3336   91.4148    4.8654 C.ar    1  UNL1        0.0159
     32 C          58.9647   92.3463    3.8735 C.ar    1  UNL1        0.0158
     33 N          62.3337   95.0718    0.6375 N.3     1  UNL1       -0.2698
     34 C          63.0912   93.8740    1.1288 C.3     1  UNL1        0.0938
     35 C          62.4601   92.9425    2.1208 C.3     1  UNL1        0.1081
     36 N          61.0715   93.2088    2.6215 N.pl3   1  UNL1       -0.3046
     37 C          60.3140   94.4066    2.1302 C.3     1  UNL1        0.1081
     38 C          60.9451   95.3381    1.1382 C.3     1  UNL1        0.0938
     39 C          64.4128   95.8473   -0.7138 C.3     1  UNL1        0.0188
     40 C          62.9649   96.0033   -0.3544 C.3     1  UNL1        0.0722
@<TRIPOS>BOND
     1    39    40    1
     2    40    33    1
     3    33    34    1
     4    34    35    1
     5    35    36    1
     6    36    27    1
     7    27    28   ar
     8    28    29   ar
     9    29    30   ar
    10    30    25    1
    11    25     1    1
    12     1     2   ar
    13     2     3   ar
    14     3     7    1
    15     7     8    1
    16     7     9   am
    17     9    10    2
    18     9    11   am
    19    11    13    1
    20    13    14   ar
    21    14    15    1
    22    14    16   ar
    23    16    21    1
    24    21    22    1
    25    16    17   ar
    26    17    18   ar
    27    18    23    1
    28    23    24    1
    29    18    19   ar
    30    19    20    1
    31     3     4   ar
    32     4     5   ar
    33     5     6   ar
    34    30    31   ar
    35    31    32   ar
    36    36    37    1
    37    37    38    1
    38    38    33    1
    39    32    27   ar
    40     6     1   ar
    41    19    13   ar
    42    25    26    1
    43    11    12    1
@<TRIPOS>MOLECULE
*****
 40 43 0 0 0
SMALL
GASTEIGER

@<TRIPOS>ATOM
      1 C          59.3757   88.7957    7.6687 C.ar    1  UNL1        0.1368
      2 C          59.7949   89.5620    8.8882 C.ar    1  UNL1        0.0691
      3 C          60.6401   88.9004    9.9360 C.ar    1  UNL1        0.1432
      4 N          61.0662   87.4725    9.7643 N.ar    1  UNL1       -0.2085
      5 C          60.6471   86.7062    8.5448 C.ar    1  UNL1        0.2012
      6 N          59.8018   87.3678    7.4970 N.ar    1  UNL1       -0.2088
      7 N          61.0592   89.6667   11.1555 N.am    1  UNL1       -0.2261
      8 C          60.0646   89.9498   12.2420 C.3     1  UNL1        0.1231
      9 C          62.4730   90.1499   11.2884 C.2     1  UNL1        0.3126
     10 O          63.4677   89.8669   10.2019 O.2     1  UNL1       -0.2519
     11 N          62.8921   90.9162   12.5079 N.am    1  UNL1       -0.2663
     12 H          62.2393   91.1020   13.2210 H       1  UNL1        0.1565
     13 C          64.3059   91.3995   12.6409 C.ar    1  UNL1        0.0788
     14 C          64.9255   92.2161   11.5459 C.ar    1  UNL1        0.1060
     15 CL         64.1314   92.5496   10.3178 Cl      1  UNL1       -0.0777
     16 C          66.3393   92.6994   11.6789 C.ar    1  UNL1        0.1535
     17 C          67.1335   92.3659   12.9070 C.ar    1  UNL1        0.0756
     18 C          66.5139   91.5492   14.0020 C.ar    1  UNL1        0.1535
     19 C          65.1001   91.0660   13.8689 C.ar    1  UNL1        0.1060
     20 CL         64.4805   90.2492   14.9640 Cl      1  UNL1       -0.0777
     21 O          66.9590   93.5161   10.5839 O.3     1  UNL1       -0.4704
     22 C          67.8932   92.8707    9.6038 C.3     1  UNL1        0.2525
     23 O          67.3081   91.2157   15.2300 O.3     1  UNL1       -0.4704
     24 C          67.8249   92.3147   16.1103 C.3     1  UNL1        0.2525
     25 N          58.5305   89.4573    6.6209 N.pl3   1  UNL1       -0.2978
     26 H          57.5625   89.2813    6.5860 H       1  UNL1        0.1536
     27 C          60.4193   92.2468    3.6375 C.ar    1  UNL1        0.0480
     28 C          58.9489   92.3350    3.9203 C.ar    1  UNL1        0.0158
     29 C          58.3193   91.4052    4.9148 C.ar    1  UNL1        0.0159
     30 C          59.1601   90.3871    5.6265 C.ar    1  UNL1        0.0494
     31 C          60.6305   90.2989    5.3437 C.ar    1  UNL1        0.0159
     32 C          61.2601   91.2287    4.3492 C.ar    1  UNL1        0.0158
     33 N          62.3081   95.0363    0.6540 N.3     1  UNL1       -0.2698
     34 C          60.8974   95.2673    1.1081 C.3     1  UNL1        0.0938
     35 C          60.2677   94.3375    2.1026 C.3     1  UNL1        0.1081
     36 N          61.0489   93.1766    2.6430 N.pl3   1  UNL1       -0.3046
     37 C          62.4597   92.9456    2.1889 C.3     1  UNL1        0.1081
     38 C          63.0893   93.8754    1.1944 C.3     1  UNL1        0.0938
     39 C          64.3596   95.7549   -0.7690 C.3     1  UNL1        0.0188
     40 C          62.9377   95.9661   -0.3405 C.3     1  UNL1        0.0722
@<TRIPOS>BOND
     1    39    40    1
     2    40    33    1
     3    33    34    1
     4    34    35    1
     5    35    36    1
     6    36    27    1
     7    27    28   ar
     8    28    29   ar
     9    29    30   ar
    10    30    25    1
    11    25     1    1
    12     1     2   ar
    13     2     3   ar
    14     3     7    1
    15     7     8    1
    16     7     9   am
    17     9    10    2
    18     9    11   am
    19    11    13    1
    20    13    14   ar
    21    14    15    1
    22    14    16   ar
    23    16    21    1
    24    21    22    1
    25    16    17   ar
    26    17    18   ar
    27    18    23    1
    28    23    24    1
    29    18    19   ar
    30    19    20    1
    31     3     4   ar
    32     4     5   ar
    33     5     6   ar
    34    30    31   ar
    35    31    32   ar
    36    36    37    1
    37    37    38    1
    38    38    33    1
    39    32    27   ar
    40     6     1   ar
    41    19    13   ar
    42    25    26    1
    43    11    12    1
@<TRIPOS>MOLECULE
*****
 40 43 0 0 0
SMALL
GASTEIGER

@<TRIPOS>ATOM
      1 C          59.6132   89.2356    7.8315 C.ar    1  UNL1        0.1368
      2 C          60.4560   88.0163    8.0621 C.ar    1  UNL1        0.0691
      3 C          61.1778   87.8389    9.3650 C.ar    1  UNL1        0.1432
      4 N          61.0568   88.8808   10.4373 N.ar    1  UNL1       -0.2085
      5 C          60.2140   90.1000   10.2068 C.ar    1  UNL1        0.2012
      6 N          59.4922   90.2774    8.9038 N.ar    1  UNL1       -0.2088
      7 N          62.0206   86.6196    9.5956 N.am    1  UNL1       -0.2261
      8 C          62.7664   85.9964    8.4530 C.3     1  UNL1        0.1231
      9 C          62.1175   86.0236   10.9686 C.2     1  UNL1        0.3126
     10 O          61.3717   86.6468   12.1111 O.2     1  UNL1       -0.2519
     11 N          62.9603   84.8044   11.1991 N.am    1  UNL1       -0.2663
     12 H          63.4498   84.3954   10.4493 H       1  UNL1        0.1565
     13 C          63.0573   84.2083   12.5723 C.ar    1  UNL1        0.0788
     14 C          62.6847   82.7725   12.7946 C.ar    1  UNL1        0.1060
     15 CL         62.2151   81.9326   11.6439 Cl      1  UNL1       -0.0777
     16 C          62.7817   82.1765   14.1676 C.ar    1  UNL1        0.1535
     17 C          63.2513   83.0163   15.3184 C.ar    1  UNL1        0.0756
     18 C          63.6238   84.4522   15.0960 C.ar    1  UNL1        0.1535
     19 C          63.5268   85.0482   13.7230 C.ar    1  UNL1        0.1060
     20 CL         63.8994   86.4841   13.5006 Cl      1  UNL1       -0.0777
     21 O          62.4091   80.7405   14.3900 O.3     1  UNL1       -0.4704
     22 C          60.9840   80.3017   14.2277 C.3     1  UNL1        0.2525
     23 O          64.0934   85.2920   16.2468 O.3     1  UNL1       -0.4704
     24 C          63.1086   86.1073   17.0312 C.3     1  UNL1        0.2525
     25 N          58.8914   89.4129    6.5286 N.pl3   1  UNL1       -0.2978
     26 H          58.0882   88.8779    6.3341 H       1  UNL1        0.1536
     27 C          60.3973   92.3905    3.5093 C.ar    1  UNL1        0.0480
     28 C          61.3538   91.4414    4.1682 C.ar    1  UNL1        0.0158
     29 C          60.8519   90.4489    5.1747 C.ar    1  UNL1        0.0159
     30 C          59.3933   90.4054    5.5222 C.ar    1  UNL1        0.0494
     31 C          58.4368   91.3545    4.8632 C.ar    1  UNL1        0.0159
     32 C          58.9388   92.3470    3.8568 C.ar    1  UNL1        0.0158
     33 N          61.9032   95.3680    0.4899 N.3     1  UNL1       -0.2698
     34 C          62.7807   94.2321    0.9252 C.3     1  UNL1        0.0938
     35 C          62.2787   93.2395    1.9316 C.3     1  UNL1        0.1081
     36 N          60.8992   93.3830    2.5028 N.pl3   1  UNL1       -0.3046
     37 C          60.0217   94.5189    2.0676 C.3     1  UNL1        0.1081
     38 C          60.5237   95.5114    1.0611 C.3     1  UNL1        0.0938
     39 C          63.7081   96.1215   -1.2202 C.3     1  UNL1        0.0188
     40 C          62.4051   96.3605   -0.5165 C.3     1  UNL1        0.0722
@<TRIPOS>BOND
     1    39    40    1
     2    40    33    1
     3    33    34    1
     4    34    35    1
     5    35    36    1
     6    36    27    1
     7    27    28   ar
     8    28    29   ar
     9    29    30   ar
    10    30    25    1
    11    25     1    1
    12     1     2   ar
    13     2     3   ar
    14     3     7    1
    15     7     8    1
    16     7     9   am
    17     9    10    2
    18     9    11   am
    19    11    13    1
    20    13    14   ar
    21    14    15    1
    22    14    16   ar
    23    16    21    1
    24    21    22    1
    25    16    17   ar
    26    17    18   ar
    27    18    23    1
    28    23    24    1
    29    18    19   ar
    30    19    20    1
    31     3     4   ar
    32     4     5   ar
    33     5     6   ar
    34    30    31   ar
    35    31    32   ar
    36    36    37    1
    37    37    38    1
    38    38    33    1
    39    32    27   ar
    40     6     1   ar
    41    19    13   ar
    42    25    26    1
    43    11    12    1
@<TRIPOS>MOLECULE
*****
 40 43 0 0 0
SMALL
GASTEIGER

@<TRIPOS>ATOM
      1 C          59.6445   89.2442    7.8272 C.ar    1  UNL1        0.1368
      2 C          60.4928   88.0298    8.0638 C.ar    1  UNL1        0.0691
      3 C          61.2090   87.8583    9.3705 C.ar    1  UNL1        0.1432
      4 N          61.0770   88.9010   10.4407 N.ar    1  UNL1       -0.2085
      5 C          60.2288   90.1153   10.2041 C.ar    1  UNL1        0.2012
      6 N          59.5126   90.2869    8.8973 N.ar    1  UNL1       -0.2088
      7 N          62.0573   86.6439    9.6072 N.am    1  UNL1       -0.2261
      8 C          62.8240   86.0320    8.4724 C.3     1  UNL1        0.1231
      9 C          62.1388   86.0416   10.9785 C.2     1  UNL1        0.3126
     10 O          61.3721   86.6536   12.1132 O.2     1  UNL1       -0.2519
     11 N          62.9870   84.8274   11.2150 N.am    1  UNL1       -0.2663
     12 H          63.4902   84.4257   10.4702 H       1  UNL1        0.1565
     13 C          63.0686   84.2250   12.5864 C.ar    1  UNL1        0.0788
     14 C          63.5293   85.0583   13.7454 C.ar    1  UNL1        0.1060
     15 CL         63.9085   86.4939   13.5331 Cl      1  UNL1       -0.0777
     16 C          63.6109   84.4559   15.1167 C.ar    1  UNL1        0.1535
     17 C          63.2316   83.0203   15.3290 C.ar    1  UNL1        0.0756
     18 C          62.7709   82.1870   14.1700 C.ar    1  UNL1        0.1535
     19 C          62.6893   82.7893   12.7987 C.ar    1  UNL1        0.1060
     20 CL         62.2285   81.9561   11.6396 Cl      1  UNL1       -0.0777
     21 O          64.0716   85.2892   16.2757 O.3     1  UNL1       -0.4704
     22 C          63.0871   86.1296   17.0336 C.3     1  UNL1        0.2525
     23 O          62.3916   80.7513   14.3823 O.3     1  UNL1       -0.4704
     24 C          60.9603   80.3252   14.2428 C.3     1  UNL1        0.2525
     25 N          58.9283   89.4157    6.5205 N.pl3   1  UNL1       -0.2978
     26 H          58.1295   88.8754    6.3223 H       1  UNL1        0.1536
     27 C          60.4308   92.3998    3.5059 C.ar    1  UNL1        0.0480
     28 C          58.9708   92.3473    3.8458 C.ar    1  UNL1        0.0158
     29 C          58.4700   91.3526    4.8507 C.ar    1  UNL1        0.0159
     30 C          59.4292   90.4104    5.5156 C.ar    1  UNL1        0.0494
     31 C          60.8892   90.4629    5.1757 C.ar    1  UNL1        0.0159
     32 C          61.3900   91.4576    4.1708 C.ar    1  UNL1        0.0158
     33 N          61.9333   95.3839    0.4913 N.3     1  UNL1       -0.2698
     34 C          60.5640   95.5405    1.0834 C.3     1  UNL1        0.0938
     35 C          60.0632   94.5458    2.0883 C.3     1  UNL1        0.1081
     36 N          60.9316   93.3945    2.5010 N.pl3   1  UNL1       -0.3046
     37 C          62.3009   93.2380    1.9090 C.3     1  UNL1        0.1081
     38 C          62.8017   94.2327    0.9041 C.3     1  UNL1        0.0938
     39 C          63.6963   96.1039   -1.2760 C.3     1  UNL1        0.0188
     40 C          62.4341   96.3786   -0.5135 C.3     1  UNL1        0.0722
@<TRIPOS>BOND
     1    39    40    1
     2    40    33    1
     3    33    34    1
     4    34    35    1
     5    35    36    1
     6    36    27    1
     7    27    28   ar
     8    28    29   ar
     9    29    30   ar
    10    30    25    1
    11    25     1    1
    12     1     2   ar
    13     2     3   ar
    14     3     7    1
    15     7     8    1
    16     7     9   am
    17     9    10    2
    18     9    11   am
    19    11    13    1
    20    13    14   ar
    21    14    15    1
    22    14    16   ar
    23    16    21    1
    24    21    22    1
    25    16    17   ar
    26    17    18   ar
    27    18    23    1
    28    23    24    1
    29    18    19   ar
    30    19    20    1
    31     3     4   ar
    32     4     5   ar
    33     5     6   ar
    34    30    31   ar
    35    31    32   ar
    36    36    37    1
    37    37    38    1
    38    38    33    1
    39    32    27   ar
    40     6     1   ar
    41    19    13   ar
    42    25    26    1
    43    11    12    1
