@<TRIPOS>MOLECULE
*****
 31 34 0 0 0
SMALL
GASTEIGER

@<TRIPOS>ATOM
      1 C          61.2189   86.3376    9.4552 C.3     1  UNL1        0.0840
      2 C          60.8241   85.7243    8.1445 C.3     1  UNL1        0.0095
      3 C          59.8529   86.4326    7.2474 C.3     1  UNL1        0.0005
      4 C          59.2763   87.7542    7.6610 C.3     1  UNL1        0.0005
      5 C          59.6710   88.3674    8.9717 C.3     1  UNL1        0.0082
      6 C          60.6423   87.6591    9.8689 C.3     1  UNL1        0.0705
      7 N          61.9181   85.5323   11.8243 N.am    1  UNL1       -0.2807
      8 C          62.1902   85.6293   10.3524 C.2     1  UNL1        0.2261
      9 O          63.4335   85.0180    9.7777 O.2     1  UNL1       -0.2748
     10 H          61.1020   85.9335   12.2015 H       1  UNL1        0.1550
     11 C          63.9508   86.9483   13.9486 C.3     1  UNL1        0.0570
     12 C          63.8237   85.4749   13.6979 C.ar    1  UNL1        0.1140
     13 N          64.6086   84.3937   14.3797 N.ar    1  UNL1       -0.0804
     14 O          64.1594   83.0745   13.8246 O.2     1  UNL1       -0.3568
     15 C          63.0968   83.3405   12.7998 C.ar    1  UNL1        0.1678
     16 C          62.3695   82.3048   11.9947 C.3     1  UNL1        0.0767
     17 C          62.8894   84.8240   12.7215 C.ar    1  UNL1        0.1005
     18 C          61.0370   88.2723   11.1797 C.2     1  UNL1        0.1731
     19 O          60.4063   87.7915   12.4528 O.2     1  UNL1       -0.2913
     20 C          62.0626   89.3664   11.2173 C.ar    1  UNL1        0.0347
     21 C          62.7839   89.6746   12.4959 C.ar    1  UNL1        0.0029
     22 C          63.8094   90.7686   12.5335 C.ar    1  UNL1        0.0016
     23 C          64.1136   91.5544   11.2924 C.ar    1  UNL1        0.0171
     24 C          63.3923   91.2462   10.0139 C.ar    1  UNL1        0.0016
     25 C          62.3667   90.1522    9.9764 C.ar    1  UNL1        0.0029
     26 C          65.1391   92.6485   11.3300 C.ar    1  UNL1        0.0754
     27 C          65.8342   93.2466   10.1430 C.ar    1  UNL1        0.0409
     28 C          66.7743   94.3042   10.6406 C.ar    1  UNL1        0.1214
     29 N          66.6602   94.3598   12.1352 N.ar    1  UNL1       -0.1711
     30 N          65.6496   93.3365   12.5613 N.ar    1  UNL1       -0.2757
     31 H          65.3704   93.1493   13.4866 H       1  UNL1        0.1889
@<TRIPOS>BOND
     1    11    12    1
     2    12    13   ar
     3    13    14   ar
     4    14    15   ar
     5    15    16    1
     6    15    17   ar
     7    17     7    1
     8     7     8   am
     9     8     9    2
    10     1     8    1
    11     1     2    1
    12     2     3    1
    13     3     4    1
    14     4     5    1
    15     5     6    1
    16     6    18    1
    17    18    19    2
    18    18    20    1
    19    20    21   ar
    20    21    22   ar
    21    22    23   ar
    22    23    26    1
    23    26    27   ar
    24    27    28   ar
    25    28    29   ar
    26    29    30   ar
    27    23    24   ar
    28    24    25   ar
    29    17    12   ar
    30     6     1    1
    31    25    20   ar
    32    30    26   ar
    33     7    10    1
    34    30    31    1
@<TRIPOS>MOLECULE
*****
 31 34 0 0 0
SMALL
GASTEIGER

@<TRIPOS>ATOM
      1 C          61.2104   86.3486    9.4541 C.3     1  UNL1        0.0840
      2 C          60.8177   85.7368    8.1421 C.3     1  UNL1        0.0095
      3 C          59.8496   86.4472    7.2432 C.3     1  UNL1        0.0005
      4 C          59.2742   87.7694    7.6563 C.3     1  UNL1        0.0005
      5 C          59.6669   88.3812    8.9683 C.3     1  UNL1        0.0082
      6 C          60.6350   87.6708    9.8672 C.3     1  UNL1        0.0705
      7 N          61.9116   85.5557   11.8268 N.am    1  UNL1       -0.2807
      8 C          62.1786   85.6382   10.3531 C.2     1  UNL1        0.2261
      9 O          63.4136   85.0104    9.7783 O.2     1  UNL1       -0.2748
     10 H          61.1010   85.9678   12.2040 H       1  UNL1        0.1550
     11 C          62.3621   82.3278   11.9915 C.3     1  UNL1        0.0570
     12 C          63.0867   83.3617   12.8015 C.ar    1  UNL1        0.1140
     13 N          64.1457   83.0933   13.8294 N.ar    1  UNL1       -0.0804
     14 O          64.5931   84.4112   14.3890 O.2     1  UNL1       -0.3568
     15 C          63.8107   85.4940   13.7069 C.ar    1  UNL1        0.1678
     16 C          63.9371   86.9668   13.9613 C.3     1  UNL1        0.0767
     17 C          62.8797   84.8454   12.7258 C.ar    1  UNL1        0.1005
     18 C          61.0278   88.2826   11.1793 C.2     1  UNL1        0.1731
     19 O          60.3916   87.8037   12.4504 O.2     1  UNL1       -0.2913
     20 C          62.0567   89.3734   11.2201 C.ar    1  UNL1        0.0347
     21 C          62.3713   90.1545    9.9787 C.ar    1  UNL1        0.0029
     22 C          63.4002   91.2452   10.0195 C.ar    1  UNL1        0.0016
     23 C          64.1145   91.5548   11.3018 C.ar    1  UNL1        0.0171
     24 C          63.7998   90.7738   12.5431 C.ar    1  UNL1        0.0016
     25 C          62.7709   89.6830   12.5022 C.ar    1  UNL1        0.0029
     26 C          65.1434   92.6456   11.3426 C.ar    1  UNL1        0.0754
     27 C          65.8483   93.2375   10.1582 C.ar    1  UNL1        0.0409
     28 C          66.7886   94.2936   10.6586 C.ar    1  UNL1        0.1214
     29 N          66.6648   94.3545   12.1522 N.ar    1  UNL1       -0.1711
     30 N          65.6480   93.3359   12.5749 N.ar    1  UNL1       -0.2757
     31 H          65.3621   93.1527   13.4990 H       1  UNL1        0.1889
@<TRIPOS>BOND
     1    11    12    1
     2    12    13   ar
     3    13    14   ar
     4    14    15   ar
     5    15    16    1
     6    15    17   ar
     7    17     7    1
     8     7     8   am
     9     8     9    2
    10     1     8    1
    11     1     2    1
    12     2     3    1
    13     3     4    1
    14     4     5    1
    15     5     6    1
    16     6    18    1
    17    18    19    2
    18    18    20    1
    19    20    21   ar
    20    21    22   ar
    21    22    23   ar
    22    23    26    1
    23    26    27   ar
    24    27    28   ar
    25    28    29   ar
    26    29    30   ar
    27    23    24   ar
    28    24    25   ar
    29    17    12   ar
    30     6     1    1
    31    25    20   ar
    32    30    26   ar
    33     7    10    1
    34    30    31    1
@<TRIPOS>MOLECULE
*****
 31 34 0 0 0
SMALL
GASTEIGER

@<TRIPOS>ATOM
      1 C          63.1763   86.9133   12.8267 C.3     1  UNL1        0.0840
      2 C          63.8142   85.6640   13.3580 C.3     1  UNL1        0.0095
      3 C          64.7590   85.7403   14.5205 C.3     1  UNL1        0.0005
      4 C          65.0659   87.0659   15.1517 C.3     1  UNL1        0.0005
      5 C          64.4281   88.3152   14.6205 C.3     1  UNL1        0.0082
      6 C          63.4833   88.2389   13.4580 C.3     1  UNL1        0.0705
      7 N          62.3630   87.8052   10.5260 N.am    1  UNL1       -0.2807
      8 C          62.2315   86.8370   11.6642 C.2     1  UNL1        0.2261
      9 O          61.1551   85.7927   11.6398 O.2     1  UNL1       -0.2748
     10 H          63.0695   88.4907   10.5420 H       1  UNL1        0.1550
     11 C          60.0323   89.9719    9.8033 C.3     1  UNL1        0.0570
     12 C          60.3469   88.7249    9.0313 C.ar    1  UNL1        0.1140
     13 N          59.6454   88.2549    7.7916 N.ar    1  UNL1       -0.0804
     14 O          60.2832   86.9685    7.3575 O.2     1  UNL1       -0.3568
     15 C          61.3789   86.6435    8.3290 C.ar    1  UNL1        0.1678
     16 C          62.2774   85.4436    8.2755 C.3     1  UNL1        0.0767
     17 C          61.4182   87.7290    9.3635 C.ar    1  UNL1        0.1005
     18 C          62.8453   89.4883   12.9267 C.2     1  UNL1        0.1731
     19 O          61.3534   89.6405   12.9584 O.2     1  UNL1       -0.2913
     20 C          63.6994   90.5854   12.3637 C.ar    1  UNL1        0.0347
     21 C          64.7320   91.2493   13.2257 C.ar    1  UNL1        0.0029
     22 C          65.5861   92.3464   12.6627 C.ar    1  UNL1        0.0016
     23 C          65.4074   92.7797   11.2378 C.ar    1  UNL1        0.0171
     24 C          64.3748   92.1158   10.3759 C.ar    1  UNL1        0.0016
     25 C          63.5208   91.0187   10.9389 C.ar    1  UNL1        0.0029
     26 C          66.2615   93.8768   10.6748 C.ar    1  UNL1        0.0754
     27 C          65.9447   95.3427   10.7018 C.ar    1  UNL1        0.0409
     28 C          67.0697   96.0725   10.0297 C.ar    1  UNL1        0.1214
     29 N          68.0818   95.0577    9.5872 N.ar    1  UNL1       -0.1711
     30 N          67.5823   93.7006    9.9860 N.ar    1  UNL1       -0.2757
     31 H          68.0408   92.8446    9.8240 H       1  UNL1        0.1889
@<TRIPOS>BOND
     1    11    12    1
     2    12    13   ar
     3    13    14   ar
     4    14    15   ar
     5    15    16    1
     6    15    17   ar
     7    17     7    1
     8     7     8   am
     9     8     9    2
    10     1     8    1
    11     1     2    1
    12     2     3    1
    13     3     4    1
    14     4     5    1
    15     5     6    1
    16     6    18    1
    17    18    19    2
    18    18    20    1
    19    20    21   ar
    20    21    22   ar
    21    22    23   ar
    22    23    26    1
    23    26    27   ar
    24    27    28   ar
    25    28    29   ar
    26    29    30   ar
    27    23    24   ar
    28    24    25   ar
    29    17    12   ar
    30     6     1    1
    31    25    20   ar
    32    30    26   ar
    33     7    10    1
    34    30    31    1
@<TRIPOS>MOLECULE
*****
 31 34 0 0 0
SMALL
GASTEIGER

@<TRIPOS>ATOM
      1 C          61.7079   87.5379   10.8490 C.3     1  UNL1        0.0840
      2 C          61.5330   87.0007    9.4595 C.3     1  UNL1        0.0095
      3 C          60.7993   87.8083    8.4301 C.3     1  UNL1        0.0005
      4 C          60.2406   89.1529    8.7903 C.3     1  UNL1        0.0005
      5 C          60.4156   89.6901   10.1798 C.3     1  UNL1        0.0082
      6 C          61.1492   88.8826   11.2091 C.3     1  UNL1        0.0705
      7 N          62.0459   85.3067   12.1365 N.am    1  UNL1       -0.2807
      8 C          62.4416   86.7304   11.8784 C.2     1  UNL1        0.2261
      9 O          63.5709   87.3465   12.6497 O.2     1  UNL1       -0.2748
     10 H          61.3047   84.9023   11.6302 H       1  UNL1        0.1550
     11 C          61.4915   85.3394   15.3522 C.3     1  UNL1        0.0570
     12 C          62.5247   84.5142   14.6440 C.ar    1  UNL1        0.1140
     13 N          63.4844   83.5592   15.2895 N.ar    1  UNL1       -0.0804
     14 O          64.3325   82.9538   14.2104 O.2     1  UNL1       -0.3568
     15 C          63.8968   83.5348   12.8979 C.ar    1  UNL1        0.1678
     16 C          64.4766   83.2087   11.5535 C.3     1  UNL1        0.0767
     17 C          62.7795   84.4992   13.1659 C.ar    1  UNL1        0.1005
     18 C          61.3242   89.4197   12.5988 C.2     1  UNL1        0.1731
     19 O          60.1962   89.3335   13.5837 O.2     1  UNL1       -0.2913
     20 C          62.6272   90.0430   13.0033 C.ar    1  UNL1        0.0347
     21 C          63.1495   89.8518   14.3965 C.ar    1  UNL1        0.0029
     22 C          64.4525   90.4750   14.8010 C.ar    1  UNL1        0.0016
     23 C          65.2332   91.2895   13.8125 C.ar    1  UNL1        0.0171
     24 C          64.7109   91.4807   12.4194 C.ar    1  UNL1        0.0016
     25 C          63.4079   90.8574   12.0149 C.ar    1  UNL1        0.0029
     26 C          66.5363   91.9128   14.2171 C.ar    1  UNL1        0.0754
     27 C          66.7939   92.6740   15.4836 C.ar    1  UNL1        0.0409
     28 C          68.2273   93.1160   15.4755 C.ar    1  UNL1        0.1214
     29 N          68.8556   92.6279   14.2038 N.ar    1  UNL1       -0.1711
     30 N          67.8105   91.8843   13.4261 N.ar    1  UNL1       -0.2757
     31 H          67.9384   91.4533   12.5503 H       1  UNL1        0.1889
@<TRIPOS>BOND
     1    11    12    1
     2    12    13   ar
     3    13    14   ar
     4    14    15   ar
     5    15    16    1
     6    15    17   ar
     7    17     7    1
     8     7     8   am
     9     8     9    2
    10     1     8    1
    11     1     2    1
    12     2     3    1
    13     3     4    1
    14     4     5    1
    15     5     6    1
    16     6    18    1
    17    18    19    2
    18    18    20    1
    19    20    21   ar
    20    21    22   ar
    21    22    23   ar
    22    23    26    1
    23    26    27   ar
    24    27    28   ar
    25    28    29   ar
    26    29    30   ar
    27    23    24   ar
    28    24    25   ar
    29    17    12   ar
    30     6     1    1
    31    25    20   ar
    32    30    26   ar
    33     7    10    1
    34    30    31    1
@<TRIPOS>MOLECULE
*****
 31 34 0 0 0
SMALL
GASTEIGER

@<TRIPOS>ATOM
      1 C          60.7670   88.5586   11.6252 C.3     1  UNL1        0.0840
      2 C          59.3835   88.2637   12.1242 C.3     1  UNL1        0.0095
      3 C          58.3726   89.3670   12.2276 C.3     1  UNL1        0.0005
      4 C          58.7451   90.7651   11.8319 C.3     1  UNL1        0.0005
      5 C          60.1285   91.0600   11.3329 C.3     1  UNL1        0.0082
      6 C          61.1395   89.9567   11.2295 C.3     1  UNL1        0.0705
      7 N          61.4462   86.2022   10.7670 N.am    1  UNL1       -0.2807
      8 C          61.7780   87.4553   11.5218 C.2     1  UNL1        0.2261
      9 O          63.1209   87.6051   12.1731 O.2     1  UNL1       -0.2748
     10 H          60.5648   86.1039   10.3395 H       1  UNL1        0.1550
     11 C          62.4742   84.3068   13.2165 C.3     1  UNL1        0.0570
     12 C          62.9297   84.2278   11.7895 C.ar    1  UNL1        0.1140
     13 N          63.9376   83.2636   11.2379 N.ar    1  UNL1       -0.0804
     14 O          64.0881   83.5389    9.7711 O.2     1  UNL1       -0.3568
     15 C          63.1731   84.6732    9.4162 C.ar    1  UNL1        0.1678
     16 C          63.0037   85.2760    8.0531 C.3     1  UNL1        0.0767
     17 C          62.4571   85.0990   10.6636 C.ar    1  UNL1        0.1005
     18 C          62.5230   90.2515   10.7305 C.2     1  UNL1        0.1731
     19 O          62.8721   89.9976    9.2940 O.2     1  UNL1       -0.2913
     20 C          63.5574   90.8002   11.6680 C.ar    1  UNL1        0.0347
     21 C          64.5621   91.7990   11.1749 C.ar    1  UNL1        0.0029
     22 C          65.5965   92.3477   12.1125 C.ar    1  UNL1        0.0016
     23 C          65.6261   91.8977   13.5431 C.ar    1  UNL1        0.0171
     24 C          64.6214   90.8990   14.0361 C.ar    1  UNL1        0.0016
     25 C          63.5871   90.3502   13.0986 C.ar    1  UNL1        0.0029
     26 C          66.6605   92.4464   14.4807 C.ar    1  UNL1        0.0754
     27 C          67.6793   91.6455   15.2361 C.ar    1  UNL1        0.0409
     28 C          68.5061   92.5964   16.0497 C.ar    1  UNL1        0.1214
     29 N          67.9984   93.9851   15.7972 N.ar    1  UNL1       -0.1711
     30 N          66.8577   93.8924   14.8275 N.ar    1  UNL1       -0.2757
     31 H          66.3310   94.6479   14.4797 H       1  UNL1        0.1889
@<TRIPOS>BOND
     1    11    12    1
     2    12    13   ar
     3    13    14   ar
     4    14    15   ar
     5    15    16    1
     6    15    17   ar
     7    17     7    1
     8     7     8   am
     9     8     9    2
    10     1     8    1
    11     1     2    1
    12     2     3    1
    13     3     4    1
    14     4     5    1
    15     5     6    1
    16     6    18    1
    17    18    19    2
    18    18    20    1
    19    20    21   ar
    20    21    22   ar
    21    22    23   ar
    22    23    26    1
    23    26    27   ar
    24    27    28   ar
    25    28    29   ar
    26    29    30   ar
    27    23    24   ar
    28    24    25   ar
    29    17    12   ar
    30     6     1    1
    31    25    20   ar
    32    30    26   ar
    33     7    10    1
    34    30    31    1
@<TRIPOS>MOLECULE
*****
 31 34 0 0 0
SMALL
GASTEIGER

@<TRIPOS>ATOM
      1 C          63.2625   87.1868   12.6604 C.3     1  UNL1        0.0840
      2 C          63.6426   85.7361   12.6928 C.3     1  UNL1        0.0095
      3 C          64.3359   85.1692   13.8961 C.3     1  UNL1        0.0005
      4 C          64.6491   86.0529   15.0669 C.3     1  UNL1        0.0005
      5 C          64.2691   87.5036   15.0345 C.3     1  UNL1        0.0082
      6 C          63.5758   88.0705   13.8312 C.3     1  UNL1        0.0705
      7 N          61.1061   87.4996   11.2454 N.am    1  UNL1       -0.2807
      8 C          62.5692   87.7538   11.4571 C.2     1  UNL1        0.2261
      9 O          63.3390   88.5749   10.4655 O.2     1  UNL1       -0.2748
     10 H          60.6009   86.9607   11.8962 H       1  UNL1        0.1550
     11 C          60.5150   85.9211    8.4511 C.3     1  UNL1        0.0570
     12 C          60.1411   87.3410    8.7578 C.ar    1  UNL1        0.1140
     13 N          59.4298   88.2846    7.8339 N.ar    1  UNL1       -0.0804
     14 O          59.2619   89.5934    8.5473 O.2     1  UNL1       -0.3568
     15 C          59.8694   89.4586    9.9121 C.ar    1  UNL1        0.1678
     16 C          59.9240   90.5282   10.9623 C.3     1  UNL1        0.0767
     17 C          60.4128   88.0666   10.0422 C.ar    1  UNL1        0.1005
     18 C          63.1958   89.5213   13.7987 C.2     1  UNL1        0.1731
     19 O          61.9690   89.9916   14.5224 O.2     1  UNL1       -0.2913
     20 C          64.0426   90.5016   13.0426 C.ar    1  UNL1        0.0347
     21 C          63.5950   91.0007   11.7006 C.ar    1  UNL1        0.0029
     22 C          64.4418   91.9811   10.9445 C.ar    1  UNL1        0.0016
     23 C          65.7362   92.4624   11.5303 C.ar    1  UNL1        0.0171
     24 C          66.1836   91.9634   12.8721 C.ar    1  UNL1        0.0016
     25 C          65.3368   90.9830   13.6283 C.ar    1  UNL1        0.0029
     26 C          66.5830   93.4428   10.7741 C.ar    1  UNL1        0.0754
     27 C          66.2464   94.8810   10.5128 C.ar    1  UNL1        0.0409
     28 C          67.3704   95.4842    9.7237 C.ar    1  UNL1        0.1214
     29 N          68.4017   94.4187    9.4972 N.ar    1  UNL1       -0.1711
     30 N          67.9150   93.1571   10.1464 N.ar    1  UNL1       -0.2757
     31 H          68.3870   92.2932   10.1584 H       1  UNL1        0.1889
@<TRIPOS>BOND
     1    11    12    1
     2    12    13   ar
     3    13    14   ar
     4    14    15   ar
     5    15    16    1
     6    15    17   ar
     7    17     7    1
     8     7     8   am
     9     8     9    2
    10     1     8    1
    11     1     2    1
    12     2     3    1
    13     3     4    1
    14     4     5    1
    15     5     6    1
    16     6    18    1
    17    18    19    2
    18    18    20    1
    19    20    21   ar
    20    21    22   ar
    21    22    23   ar
    22    23    26    1
    23    26    27   ar
    24    27    28   ar
    25    28    29   ar
    26    29    30   ar
    27    23    24   ar
    28    24    25   ar
    29    17    12   ar
    30     6     1    1
    31    25    20   ar
    32    30    26   ar
    33     7    10    1
    34    30    31    1
@<TRIPOS>MOLECULE
*****
 31 34 0 0 0
SMALL
GASTEIGER

@<TRIPOS>ATOM
      1 C          63.9389   90.1353   13.5535 C.3     1  UNL1        0.0840
      2 C          65.2299   90.8523   13.8166 C.3     1  UNL1        0.0095
      3 C          65.7329   91.8738   12.8402 C.3     1  UNL1        0.0005
      4 C          64.9449   92.1783   11.6006 C.3     1  UNL1        0.0005
      5 C          63.6539   91.4613   11.3376 C.3     1  UNL1        0.0082
      6 C          63.1509   90.4398   12.3140 C.3     1  UNL1        0.0705
      7 N          64.0241   87.7340   14.5417 N.am    1  UNL1       -0.2807
      8 C          63.4358   89.1137   14.5299 C.2     1  UNL1        0.2261
      9 O          62.3444   89.4719   15.4946 O.2     1  UNL1       -0.2748
     10 H          64.7405   87.4989   13.9086 H       1  UNL1        0.1550
     11 C          63.0904   88.3141   17.6143 C.3     1  UNL1        0.0570
     12 C          63.0919   86.9791   16.9304 C.ar    1  UNL1        0.1140
     13 N          62.6645   85.6763   17.5388 N.ar    1  UNL1       -0.0804
     14 O          62.8296   84.6045   16.5024 O.2     1  UNL1       -0.3568
     15 C          63.3590   85.2448   15.2536 C.ar    1  UNL1        0.1678
     16 C          63.6714   84.5412   13.9663 C.3     1  UNL1        0.0767
     17 C          63.5211   86.7124   15.5181 C.ar    1  UNL1        0.1005
     18 C          61.8599   89.7228   12.0509 C.2     1  UNL1        0.1731
     19 O          60.6522   90.0208   12.8891 O.2     1  UNL1       -0.2913
     20 C          61.7766   88.7077   10.9497 C.ar    1  UNL1        0.0347
     21 C          61.0173   89.0229    9.6950 C.ar    1  UNL1        0.0029
     22 C          60.9340   88.0079    8.5937 C.ar    1  UNL1        0.0016
     23 C          61.6101   86.6776    8.7472 C.ar    1  UNL1        0.0171
     24 C          62.3694   86.3625   10.0018 C.ar    1  UNL1        0.0016
     25 C          62.4526   87.3775   11.1031 C.ar    1  UNL1        0.0029
     26 C          61.5269   85.6626    7.6459 C.ar    1  UNL1        0.0754
     27 C          62.6864   84.9555    7.0091 C.ar    1  UNL1        0.0409
     28 C          62.1456   84.0323    5.9577 C.ar    1  UNL1        0.1214
     29 N          60.6519   84.1688    5.9448 N.ar    1  UNL1       -0.1711
     30 N          60.2695   85.1764    6.9882 N.ar    1  UNL1       -0.2757
     31 H          59.3540   85.4674    7.2035 H       1  UNL1        0.1889
@<TRIPOS>BOND
     1    11    12    1
     2    12    13   ar
     3    13    14   ar
     4    14    15   ar
     5    15    16    1
     6    15    17   ar
     7    17     7    1
     8     7     8   am
     9     8     9    2
    10     1     8    1
    11     1     2    1
    12     2     3    1
    13     3     4    1
    14     4     5    1
    15     5     6    1
    16     6    18    1
    17    18    19    2
    18    18    20    1
    19    20    21   ar
    20    21    22   ar
    21    22    23   ar
    22    23    26    1
    23    26    27   ar
    24    27    28   ar
    25    28    29   ar
    26    29    30   ar
    27    23    24   ar
    28    24    25   ar
    29    17    12   ar
    30     6     1    1
    31    25    20   ar
    32    30    26   ar
    33     7    10    1
    34    30    31    1
@<TRIPOS>MOLECULE
*****
 31 34 0 0 0
SMALL
GASTEIGER

@<TRIPOS>ATOM
      1 C          63.6176   87.2744   15.1921 C.3     1  UNL1        0.0840
      2 C          63.4634   87.0505   16.6672 C.3     1  UNL1        0.0095
      3 C          63.1557   88.2058   17.5730 C.3     1  UNL1        0.0005
      4 C          63.0023   89.5851   17.0036 C.3     1  UNL1        0.0005
      5 C          63.1565   89.8090   15.5285 C.3     1  UNL1        0.0082
      6 C          63.4642   88.6536   14.6227 C.3     1  UNL1        0.0705
      7 N          62.8149   85.4182   13.5610 N.am    1  UNL1       -0.2807
      8 C          63.9253   86.1190   14.2862 C.2     1  UNL1        0.2261
      9 O          65.3433   85.6644   14.1057 O.2     1  UNL1       -0.2748
     10 H          61.8843   85.7166   13.6795 H       1  UNL1        0.1550
     11 C          63.8979   82.4847   14.4941 C.3     1  UNL1        0.0570
     12 C          63.6203   82.9145   13.0841 C.ar    1  UNL1        0.1140
     13 N          63.7918   82.0713   11.8554 N.ar    1  UNL1       -0.0804
     14 O          63.4000   82.8987   10.6670 O.2     1  UNL1       -0.3568
     15 C          62.9864   84.2531   11.1613 C.ar    1  UNL1        0.1678
     16 C          62.5187   85.3969   10.3111 C.3     1  UNL1        0.0767
     17 C          63.1226   84.2629   12.6551 C.ar    1  UNL1        0.1005
     18 C          63.6185   88.8775   13.1475 C.2     1  UNL1        0.1731
     19 O          63.1800   87.8197   12.1785 O.2     1  UNL1       -0.2913
     20 C          64.2112   90.1590   12.6413 C.ar    1  UNL1        0.0347
     21 C          63.7431   90.7392   11.3396 C.ar    1  UNL1        0.0029
     22 C          64.3358   92.0208   10.8335 C.ar    1  UNL1        0.0016
     23 C          65.3966   92.7222   11.6290 C.ar    1  UNL1        0.0171
     24 C          65.8647   92.1420   12.9306 C.ar    1  UNL1        0.0016
     25 C          65.2719   90.8604   13.4368 C.ar    1  UNL1        0.0029
     26 C          65.9893   94.0038   11.1229 C.ar    1  UNL1        0.0754
     27 C          66.8691   94.1527    9.9171 C.ar    1  UNL1        0.0409
     28 C          67.2299   95.6025    9.7826 C.ar    1  UNL1        0.1214
     29 N          66.5731   96.3496   10.9053 N.ar    1  UNL1       -0.1711
     30 N          65.8064   95.3616   11.7336 N.ar    1  UNL1       -0.2757
     31 H          65.2762   95.5681   12.5370 H       1  UNL1        0.1889
@<TRIPOS>BOND
     1    11    12    1
     2    12    13   ar
     3    13    14   ar
     4    14    15   ar
     5    15    16    1
     6    15    17   ar
     7    17     7    1
     8     7     8   am
     9     8     9    2
    10     1     8    1
    11     1     2    1
    12     2     3    1
    13     3     4    1
    14     4     5    1
    15     5     6    1
    16     6    18    1
    17    18    19    2
    18    18    20    1
    19    20    21   ar
    20    21    22   ar
    21    22    23   ar
    22    23    26    1
    23    26    27   ar
    24    27    28   ar
    25    28    29   ar
    26    29    30   ar
    27    23    24   ar
    28    24    25   ar
    29    17    12   ar
    30     6     1    1
    31    25    20   ar
    32    30    26   ar
    33     7    10    1
    34    30    31    1
@<TRIPOS>MOLECULE
*****
 31 34 0 0 0
SMALL
GASTEIGER

@<TRIPOS>ATOM
      1 C          63.8421   90.6782   12.5478 C.3     1  UNL1        0.0840
      2 C          64.9828   91.6355   12.7276 C.3     1  UNL1        0.0095
      3 C          65.4216   92.5024   11.5849 C.3     1  UNL1        0.0005
      4 C          64.7197   92.4120   10.2623 C.3     1  UNL1        0.0005
      5 C          63.5791   91.4547   10.0825 C.3     1  UNL1        0.0082
      6 C          63.1403   90.5878   11.2252 C.3     1  UNL1        0.0705
      7 N          64.3746   88.8627   14.3284 N.am    1  UNL1       -0.2807
      8 C          63.4033   89.8112   13.6905 C.2     1  UNL1        0.2261
      9 O          61.9932   89.8927   14.1953 O.2     1  UNL1       -0.2748
     10 H          65.3002   88.8093   13.9971 H       1  UNL1        0.1550
     11 C          62.9033   89.8842   17.0563 C.3     1  UNL1        0.0570
     12 C          63.2595   88.4653   16.7250 C.ar    1  UNL1        0.1140
     13 N          63.0020   87.2668   17.5894 N.ar    1  UNL1       -0.0804
     14 O          63.5192   86.0565   16.8698 O.2     1  UNL1       -0.3568
     15 C          64.0963   86.5071   15.5607 C.ar    1  UNL1        0.1678
     16 C          64.7237   85.6239   14.5232 C.3     1  UNL1        0.0767
     17 C          63.9358   87.9958   15.4711 C.ar    1  UNL1        0.1005
     18 C          61.9995   89.6304   11.0454 C.2     1  UNL1        0.1731
     19 O          60.5981   90.1494   10.9163 O.2     1  UNL1       -0.2913
     20 C          62.2603   88.1541   10.9947 C.ar    1  UNL1        0.0347
     21 C          62.2994   87.4444    9.6737 C.ar    1  UNL1        0.0029
     22 C          62.5602   85.9681    9.6230 C.ar    1  UNL1        0.0016
     23 C          62.7818   85.2016   10.8932 C.ar    1  UNL1        0.0171
     24 C          62.7427   85.9113   12.2140 C.ar    1  UNL1        0.0016
     25 C          62.4820   87.3876   12.2648 C.ar    1  UNL1        0.0029
     26 C          63.0426   83.7253   10.8425 C.ar    1  UNL1        0.0754
     27 C          62.5170   82.7034   11.8066 C.ar    1  UNL1        0.0409
     28 C          63.0243   81.3582   11.3787 C.ar    1  UNL1        0.1214
     29 N          63.8635   81.5487   10.1501 N.ar    1  UNL1       -0.1711
     30 N          63.8748   83.0116    9.8187 N.ar    1  UNL1       -0.2757
     31 H          64.3457   83.4299    9.0621 H       1  UNL1        0.1889
@<TRIPOS>BOND
     1    11    12    1
     2    12    13   ar
     3    13    14   ar
     4    14    15   ar
     5    15    16    1
     6    15    17   ar
     7    17     7    1
     8     7     8   am
     9     8     9    2
    10     1     8    1
    11     1     2    1
    12     2     3    1
    13     3     4    1
    14     4     5    1
    15     5     6    1
    16     6    18    1
    17    18    19    2
    18    18    20    1
    19    20    21   ar
    20    21    22   ar
    21    22    23   ar
    22    23    26    1
    23    26    27   ar
    24    27    28   ar
    25    28    29   ar
    26    29    30   ar
    27    23    24   ar
    28    24    25   ar
    29    17    12   ar
    30     6     1    1
    31    25    20   ar
    32    30    26   ar
    33     7    10    1
    34    30    31    1
