@<TRIPOS>MOLECULE
*****
 34 36 0 0 0
SMALL
GASTEIGER

@<TRIPOS>ATOM
      1 N          62.2282   89.9190   12.1157 N.pl3   1  UNL1       -0.2150
      2 H          61.3294   90.3091   12.0197 H       1  UNL1        0.1737
      3 C          62.8173   85.4824   11.6473 C.ar    1  UNL1        0.0002
      4 C          61.9125   86.2223   10.7071 C.ar    1  UNL1        0.0013
      5 C          61.7162   87.7011   10.8632 C.ar    1  UNL1        0.0159
      6 C          62.4246   88.4402   11.9596 C.ar    1  UNL1        0.0648
      7 C          63.3293   87.7003   12.8998 C.ar    1  UNL1        0.0159
      8 C          63.5257   86.2214   12.7437 C.ar    1  UNL1        0.0013
      9 C          62.6448   81.5812   12.3551 C.ar    1  UNL1        0.0590
     10 C          62.4485   83.0601   12.5112 C.ar    1  UNL1        0.0147
     11 C          63.0137   84.0035   11.4912 C.ar    1  UNL1        0.0027
     12 C          63.7752   83.4681   10.3150 C.ar    1  UNL1        0.0207
     13 C          63.9715   81.9892   10.1589 C.ar    1  UNL1        0.0984
     14 N          63.4063   81.0458   11.1789 N.ar    1  UNL1       -0.2482
     15 C          62.0796   80.6378   13.3751 C.3     1  UNL1        0.0458
     16 C          59.6459   80.2721   14.2077 C.3     1  UNL1        0.0004
     17 C          60.9210   81.0618   14.2283 C.3     1  UNL1        0.0063
     18 S          63.4012   90.8036   12.4181 S.O2    1  UNL1        0.0736
     19 O          63.1421   90.6451   13.8870 O.2     1  UNL1       -0.1499
     20 O          63.6604   90.9621   10.9492 O.2     1  UNL1       -0.1499
     21 C          64.5743   91.6882   12.7205 C.ar    1  UNL1        0.1251
     22 C          64.9918   92.7422   11.7383 C.ar    1  UNL1        0.0240
     23 C          66.1648   93.6268   12.0407 C.ar    1  UNL1        0.0727
     24 C          66.9204   93.4573   13.3254 C.ar    1  UNL1        0.0078
     25 C          66.5030   92.4034   14.3076 C.ar    1  UNL1        0.0727
     26 C          65.3299   91.5188   14.0052 C.ar    1  UNL1        0.0240
     27 C          66.5823   94.6808   11.0584 C.3     1  UNL1        0.4186
     28 F          66.9997   95.7347   10.0762 F       1  UNL1       -0.1659
     29 F          66.0822   95.7459   11.9887 F       1  UNL1       -0.1659
     30 F          67.0824   93.6157   10.1282 F       1  UNL1       -0.1659
     31 C          67.2586   92.2339   15.5923 C.3     1  UNL1        0.4186
     32 F          68.0141   92.0645   16.8770 F       1  UNL1       -0.1659
     33 F          66.0169   92.5643   16.3662 F       1  UNL1       -0.1659
     34 F          68.5003   91.9035   14.8184 F       1  UNL1       -0.1659
@<TRIPOS>BOND
     1    16    17    1
     2    17    15    1
     3    15     9    1
     4     9    10   ar
     5    10    11   ar
     6    11     3    1
     7     3     4   ar
     8     4     5   ar
     9     5     6   ar
    10     6     1    1
    11     1    18    1
    12    18    19    2
    13    18    20    2
    14    18    21    1
    15    21    22   ar
    16    22    23   ar
    17    23    27    1
    18    27    28    1
    19    27    29    1
    20    27    30    1
    21    23    24   ar
    22    24    25   ar
    23    25    31    1
    24    31    32    1
    25    31    33    1
    26    31    34    1
    27    25    26   ar
    28     6     7   ar
    29     7     8   ar
    30    11    12   ar
    31    12    13   ar
    32    13    14   ar
    33    14     9   ar
    34     8     3   ar
    35    26    21   ar
    36     1     2    1
@<TRIPOS>MOLECULE
*****
 34 36 0 0 0
SMALL
GASTEIGER

@<TRIPOS>ATOM
      1 N          62.2064   89.8454   11.7014 N.pl3   1  UNL1       -0.2150
      2 H          61.3149   90.2316   11.5423 H       1  UNL1        0.1737
      3 C          62.8065   85.3925   11.4531 C.ar    1  UNL1        0.0002
      4 C          62.0532   86.1092   10.3720 C.ar    1  UNL1        0.0013
      5 C          61.8532   87.5935   10.4547 C.ar    1  UNL1        0.0159
      6 C          62.4064   88.3611   11.6187 C.ar    1  UNL1        0.0648
      7 C          63.1597   87.6444   12.6998 C.ar    1  UNL1        0.0159
      8 C          63.3597   86.1601   12.6170 C.ar    1  UNL1        0.0013
      9 C          62.6465   81.5310   12.3549 C.ar    1  UNL1        0.0590
     10 C          62.4465   83.0153   12.4376 C.ar    1  UNL1        0.0147
     11 C          63.0065   83.9082   11.3703 C.ar    1  UNL1        0.0027
     12 C          63.7665   83.3168   10.2203 C.ar    1  UNL1        0.0207
     13 C          63.9665   81.8325   10.1375 C.ar    1  UNL1        0.0984
     14 N          63.4065   80.9396   11.2048 N.ar    1  UNL1       -0.2482
     15 C          62.0865   80.6381   13.4222 C.3     1  UNL1        0.0458
     16 C          59.6355   80.2548   14.1940 C.3     1  UNL1        0.0004
     17 C          60.8908   81.0758   14.2150 C.3     1  UNL1        0.0063
     18 S          63.3647   90.7413   12.0266 S.O2    1  UNL1        0.0736
     19 O          63.1257   90.5189   13.4906 O.2     1  UNL1       -0.1499
     20 O          63.6036   90.9638   10.5625 O.2     1  UNL1       -0.1499
     21 C          64.5229   91.6373   12.3517 C.ar    1  UNL1        0.1251
     22 C          65.1920   91.5420   13.6908 C.ar    1  UNL1        0.0240
     23 C          66.3503   92.4379   14.0160 C.ar    1  UNL1        0.0727
     24 C          66.8395   93.4291   13.0020 C.ar    1  UNL1        0.0078
     25 C          66.1704   93.5244   11.6629 C.ar    1  UNL1        0.0727
     26 C          65.0121   92.6285   11.3378 C.ar    1  UNL1        0.0240
     27 C          67.0193   92.3426   15.3552 C.3     1  UNL1        0.4186
     28 F          67.6884   92.2473   16.6943 F       1  UNL1       -0.1659
     29 F          65.6853   92.4627   16.0303 F       1  UNL1       -0.1659
     30 F          68.3534   92.2225   14.6801 F       1  UNL1       -0.1659
     31 C          66.6596   94.5156   10.6489 C.3     1  UNL1        0.4186
     32 F          67.1488   95.5068    9.6349 F       1  UNL1       -0.1659
     33 F          66.8828   93.4025    9.6686 F       1  UNL1       -0.1659
     34 F          66.4364   95.6287   11.6292 F       1  UNL1       -0.1659
@<TRIPOS>BOND
     1    16    17    1
     2    17    15    1
     3    15     9    1
     4     9    10   ar
     5    10    11   ar
     6    11     3    1
     7     3     4   ar
     8     4     5   ar
     9     5     6   ar
    10     6     1    1
    11     1    18    1
    12    18    19    2
    13    18    20    2
    14    18    21    1
    15    21    22   ar
    16    22    23   ar
    17    23    27    1
    18    27    28    1
    19    27    29    1
    20    27    30    1
    21    23    24   ar
    22    24    25   ar
    23    25    31    1
    24    31    32    1
    25    31    33    1
    26    31    34    1
    27    25    26   ar
    28     6     7   ar
    29     7     8   ar
    30    11    12   ar
    31    12    13   ar
    32    13    14   ar
    33    14     9   ar
    34     8     3   ar
    35    26    21   ar
    36     1     2    1
@<TRIPOS>MOLECULE
*****
 34 36 0 0 0
SMALL
GASTEIGER

@<TRIPOS>ATOM
      1 N          62.1972   89.8986   11.4394 N.pl3   1  UNL1       -0.2150
      2 H          61.3705   90.2717   11.0564 H       1  UNL1        0.1737
      3 C          62.5845   85.4588   12.0624 C.ar    1  UNL1        0.0002
      4 C          61.6003   85.9931   11.0645 C.ar    1  UNL1        0.0013
      5 C          61.4712   87.4730   10.8568 C.ar    1  UNL1        0.0159
      6 C          62.3263   88.4187   11.6471 C.ar    1  UNL1        0.0648
      7 C          63.3105   87.8844   12.6451 C.ar    1  UNL1        0.0159
      8 C          63.4396   86.4045   12.8527 C.ar    1  UNL1        0.0013
      9 C          63.1633   81.6040   11.3174 C.ar    1  UNL1        0.0590
     10 C          63.0342   83.0839   11.1098 C.ar    1  UNL1        0.0147
     11 C          62.7136   83.9788   12.2701 C.ar    1  UNL1        0.0027
     12 C          62.5222   83.3939   13.6379 C.ar    1  UNL1        0.0207
     13 C          62.6513   81.9140   13.8455 C.ar    1  UNL1        0.0984
     14 N          62.9718   81.0190   12.6852 N.ar    1  UNL1       -0.2482
     15 C          63.4839   80.7090   10.1571 C.3     1  UNL1        0.0458
     16 C          62.8744   78.1834   10.1666 C.3     1  UNL1        0.0004
     17 C          62.5477   79.5972    9.7864 C.3     1  UNL1        0.0063
     18 S          63.3276   90.8102   11.8153 S.O2    1  UNL1        0.0736
     19 O          62.9783   90.6457   13.2648 O.2     1  UNL1       -0.1499
     20 O          63.6769   90.9747   10.3659 O.2     1  UNL1       -0.1499
     21 C          64.4580   91.7217   12.1912 C.ar    1  UNL1        0.1251
     22 C          65.0830   91.6201   13.5509 C.ar    1  UNL1        0.0240
     23 C          66.2134   92.5317   13.9268 C.ar    1  UNL1        0.0727
     24 C          66.7187   93.5449   12.9429 C.ar    1  UNL1        0.0078
     25 C          66.0937   93.6465   11.5832 C.ar    1  UNL1        0.0727
     26 C          64.9633   92.7349   11.2073 C.ar    1  UNL1        0.0240
     27 C          66.8384   92.4300   15.2866 C.3     1  UNL1        0.4186
     28 F          67.4634   92.3284   16.6464 F       1  UNL1       -0.1659
     29 F          68.1961   92.6151   14.6765 F       1  UNL1       -0.1659
     30 F          65.4807   92.2450   15.8968 F       1  UNL1       -0.1659
     31 C          66.5991   94.6597   10.5992 C.3     1  UNL1        0.4186
     32 F          67.1044   95.6728    9.6153 F       1  UNL1       -0.1659
     33 F          66.7821   93.5765    9.5779 F       1  UNL1       -0.1659
     34 F          66.4160   95.7429   11.6205 F       1  UNL1       -0.1659
@<TRIPOS>BOND
     1    16    17    1
     2    17    15    1
     3    15     9    1
     4     9    10   ar
     5    10    11   ar
     6    11     3    1
     7     3     4   ar
     8     4     5   ar
     9     5     6   ar
    10     6     1    1
    11     1    18    1
    12    18    19    2
    13    18    20    2
    14    18    21    1
    15    21    22   ar
    16    22    23   ar
    17    23    27    1
    18    27    28    1
    19    27    29    1
    20    27    30    1
    21    23    24   ar
    22    24    25   ar
    23    25    31    1
    24    31    32    1
    25    31    33    1
    26    31    34    1
    27    25    26   ar
    28     6     7   ar
    29     7     8   ar
    30    11    12   ar
    31    12    13   ar
    32    13    14   ar
    33    14     9   ar
    34     8     3   ar
    35    26    21   ar
    36     1     2    1
@<TRIPOS>MOLECULE
*****
 34 36 0 0 0
SMALL
GASTEIGER

@<TRIPOS>ATOM
      1 N          61.6173   87.7065   10.3692 N.pl3   1  UNL1       -0.2150
      2 H          60.8612   87.7721    9.7421 H       1  UNL1        0.1737
      3 C          64.0938   91.3475   11.2967 C.ar    1  UNL1        0.0002
      4 C          63.9777   90.2427   12.3047 C.ar    1  UNL1        0.0013
      5 C          63.1522   89.0290   11.9955 C.ar    1  UNL1        0.0159
      6 C          62.4428   88.9201   10.6784 C.ar    1  UNL1        0.0648
      7 C          62.5588   90.0249    9.6704 C.ar    1  UNL1        0.0159
      8 C          63.3844   91.2386    9.9796 C.ar    1  UNL1        0.0013
      9 C          66.4178   93.9040   13.2495 C.ar    1  UNL1        0.0590
     10 C          65.5923   92.6904   12.9402 C.ar    1  UNL1        0.0147
     11 C          64.9193   92.5611   11.6059 C.ar    1  UNL1        0.0027
     12 C          65.0719   93.6455   10.5808 C.ar    1  UNL1        0.0207
     13 C          65.8974   94.8591   10.8901 C.ar    1  UNL1        0.0984
     14 N          66.5703   94.9883   12.2244 N.ar    1  UNL1       -0.2482
     15 C          67.0907   94.0333   14.5838 C.3     1  UNL1        0.0458
     16 C          68.3647   92.3820   16.1330 C.3     1  UNL1        0.0004
     17 C          67.0785   92.8815   15.5446 C.3     1  UNL1        0.0063
     18 S          61.9437   86.3929   11.0156 S.O2    1  UNL1        0.0736
     19 O          61.0545   86.7411   12.1724 O.2     1  UNL1       -0.1499
     20 O          62.8329   86.0446    9.8589 O.2     1  UNL1       -0.1499
     21 C          62.2701   85.0792   11.6620 C.ar    1  UNL1        0.1251
     22 C          62.3132   84.9693   13.1574 C.ar    1  UNL1        0.0240
     23 C          62.6396   83.6557   13.8038 C.ar    1  UNL1        0.0727
     24 C          62.9229   82.4520   12.9548 C.ar    1  UNL1        0.0078
     25 C          62.8798   82.5619   11.4595 C.ar    1  UNL1        0.0727
     26 C          62.5534   83.8755   10.8131 C.ar    1  UNL1        0.0240
     27 C          62.6826   83.5459   15.2992 C.3     1  UNL1        0.4186
     28 F          62.7256   83.4360   16.7945 F       1  UNL1       -0.1659
     29 F          63.8875   82.6581   15.1993 F       1  UNL1       -0.1659
     30 F          61.4777   84.4336   15.3990 F       1  UNL1       -0.1659
     31 C          63.1632   81.3581   10.6105 C.3     1  UNL1        0.4186
     32 F          63.4465   80.1544    9.7615 F       1  UNL1       -0.1659
     33 F          63.8713   82.2275    9.6142 F       1  UNL1       -0.1659
     34 F          62.4550   80.4887   11.6068 F       1  UNL1       -0.1659
@<TRIPOS>BOND
     1    16    17    1
     2    17    15    1
     3    15     9    1
     4     9    10   ar
     5    10    11   ar
     6    11     3    1
     7     3     4   ar
     8     4     5   ar
     9     5     6   ar
    10     6     1    1
    11     1    18    1
    12    18    19    2
    13    18    20    2
    14    18    21    1
    15    21    22   ar
    16    22    23   ar
    17    23    27    1
    18    27    28    1
    19    27    29    1
    20    27    30    1
    21    23    24   ar
    22    24    25   ar
    23    25    31    1
    24    31    32    1
    25    31    33    1
    26    31    34    1
    27    25    26   ar
    28     6     7   ar
    29     7     8   ar
    30    11    12   ar
    31    12    13   ar
    32    13    14   ar
    33    14     9   ar
    34     8     3   ar
    35    26    21   ar
    36     1     2    1
@<TRIPOS>MOLECULE
*****
 34 36 0 0 0
SMALL
GASTEIGER

@<TRIPOS>ATOM
      1 N          61.6034   87.6343   10.4084 N.pl3   1  UNL1       -0.2150
      2 H          60.8354   87.6997    9.7959 H       1  UNL1        0.1737
      3 C          64.0801   91.2818   11.3094 C.ar    1  UNL1        0.0002
      4 C          63.3627   91.1677    9.9970 C.ar    1  UNL1        0.0013
      5 C          62.5371   89.9519    9.6967 C.ar    1  UNL1        0.0159
      6 C          62.4289   88.8501   10.7088 C.ar    1  UNL1        0.0648
      7 C          63.1463   88.9641   12.0211 C.ar    1  UNL1        0.0159
      8 C          63.9719   90.1800   12.3214 C.ar    1  UNL1        0.0013
      9 C          66.4000   93.8548   13.2452 C.ar    1  UNL1        0.0590
     10 C          65.5745   92.6390   12.9448 C.ar    1  UNL1        0.0147
     11 C          64.9056   92.4976   11.6097 C.ar    1  UNL1        0.0027
     12 C          65.0624   93.5721   10.5748 C.ar    1  UNL1        0.0207
     13 C          65.8879   94.7879   10.8751 C.ar    1  UNL1        0.0984
     14 N          66.5567   94.9293   12.2103 N.ar    1  UNL1       -0.2482
     15 C          67.0688   93.9962   14.5803 C.3     1  UNL1        0.0458
     16 C          68.3284   92.3132   16.1071 C.3     1  UNL1        0.0004
     17 C          67.0437   92.8572   15.5561 C.3     1  UNL1        0.0063
     18 S          61.9479   86.3187   11.0414 S.O2    1  UNL1        0.0736
     19 O          62.7938   85.9686    9.8531 O.2     1  UNL1       -0.1499
     20 O          61.1019   86.6688   12.2296 O.2     1  UNL1       -0.1499
     21 C          62.2924   85.0031   11.6743 C.ar    1  UNL1        0.1251
     22 C          62.5916   83.8120   10.8131 C.ar    1  UNL1        0.0240
     23 C          62.9361   82.4965   11.4460 C.ar    1  UNL1        0.0727
     24 C          62.9814   82.3720   12.9401 C.ar    1  UNL1        0.0078
     25 C          62.6821   83.5630   13.8013 C.ar    1  UNL1        0.0727
     26 C          62.3376   84.8786   13.1684 C.ar    1  UNL1        0.0240
     27 C          63.2354   81.3053   10.5847 C.3     1  UNL1        0.4186
     28 F          63.5346   80.1142    9.7235 F       1  UNL1       -0.1659
     29 F          64.0263   82.1766    9.6545 F       1  UNL1       -0.1659
     30 F          62.4445   80.4341   11.5149 F       1  UNL1       -0.1659
     31 C          62.7273   83.4386   15.2955 C.3     1  UNL1        0.4186
     32 F          62.7726   83.3141   16.7896 F       1  UNL1       -0.1659
     33 F          63.9418   82.5651   15.1859 F       1  UNL1       -0.1659
     34 F          61.5129   84.3121   15.4050 F       1  UNL1       -0.1659
@<TRIPOS>BOND
     1    16    17    1
     2    17    15    1
     3    15     9    1
     4     9    10   ar
     5    10    11   ar
     6    11     3    1
     7     3     4   ar
     8     4     5   ar
     9     5     6   ar
    10     6     1    1
    11     1    18    1
    12    18    19    2
    13    18    20    2
    14    18    21    1
    15    21    22   ar
    16    22    23   ar
    17    23    27    1
    18    27    28    1
    19    27    29    1
    20    27    30    1
    21    23    24   ar
    22    24    25   ar
    23    25    31    1
    24    31    32    1
    25    31    33    1
    26    31    34    1
    27    25    26   ar
    28     6     7   ar
    29     7     8   ar
    30    11    12   ar
    31    12    13   ar
    32    13    14   ar
    33    14     9   ar
    34     8     3   ar
    35    26    21   ar
    36     1     2    1
@<TRIPOS>MOLECULE
*****
 34 36 0 0 0
SMALL
GASTEIGER

@<TRIPOS>ATOM
      1 N          61.6349   87.7756   10.4206 N.pl3   1  UNL1       -0.2150
      2 H          60.8773   87.8513    9.7964 H       1  UNL1        0.1737
      3 C          64.1202   91.3990   11.3921 C.ar    1  UNL1        0.0002
      4 C          63.4440   91.2892   10.0577 C.ar    1  UNL1        0.0013
      5 C          62.6155   90.0814    9.7338 C.ar    1  UNL1        0.0159
      6 C          62.4633   88.9834   10.7444 C.ar    1  UNL1        0.0648
      7 C          63.1395   89.0932   12.0788 C.ar    1  UNL1        0.0159
      8 C          63.9680   90.3011   12.4026 C.ar    1  UNL1        0.0013
      9 C          65.9579   94.8964   11.0163 C.ar    1  UNL1        0.0590
     10 C          65.1295   93.6886   10.6926 C.ar    1  UNL1        0.0147
     11 C          64.9487   92.6069   11.7159 C.ar    1  UNL1        0.0027
     12 C          65.5963   92.7330   13.0630 C.ar    1  UNL1        0.0207
     13 C          66.4248   93.9408   13.3867 C.ar    1  UNL1        0.0984
     14 N          66.6055   95.0225   12.3634 N.ar    1  UNL1       -0.2482
     15 C          66.1387   95.9782    9.9930 C.3     1  UNL1        0.0458
     16 C          67.6311   94.7833    8.2338 C.3     1  UNL1        0.0004
     17 C          67.3448   95.9730    9.1013 C.3     1  UNL1        0.0063
     18 S          61.9607   86.4525   11.0477 S.O2    1  UNL1        0.0736
     19 O          62.8997   86.1484    9.9182 O.2     1  UNL1       -0.1499
     20 O          61.0217   86.7567   12.1772 O.2     1  UNL1       -0.1499
     21 C          62.2865   85.1294   11.6748 C.ar    1  UNL1        0.1251
     22 C          62.5816   83.9411   10.8083 C.ar    1  UNL1        0.0240
     23 C          62.9074   82.6180   11.4354 C.ar    1  UNL1        0.0727
     24 C          62.9381   82.4832   12.9290 C.ar    1  UNL1        0.0078
     25 C          62.6430   83.6715   13.7955 C.ar    1  UNL1        0.0727
     26 C          62.3172   84.9946   13.1684 C.ar    1  UNL1        0.0240
     27 C          63.2025   81.4297   10.5689 C.3     1  UNL1        0.4186
     28 F          63.4975   80.2414    9.7024 F       1  UNL1       -0.1659
     29 F          63.9576   82.3105    9.6181 F       1  UNL1       -0.1659
     30 F          62.4474   80.5489   11.5197 F       1  UNL1       -0.1659
     31 C          62.6738   83.5368   15.2892 C.3     1  UNL1        0.4186
     32 F          62.7044   83.4021   16.7828 F       1  UNL1       -0.1659
     33 F          61.4955   84.4588   15.3965 F       1  UNL1       -0.1659
     34 F          63.8520   82.6148   15.1818 F       1  UNL1       -0.1659
@<TRIPOS>BOND
     1    16    17    1
     2    17    15    1
     3    15     9    1
     4     9    10   ar
     5    10    11   ar
     6    11     3    1
     7     3     4   ar
     8     4     5   ar
     9     5     6   ar
    10     6     1    1
    11     1    18    1
    12    18    19    2
    13    18    20    2
    14    18    21    1
    15    21    22   ar
    16    22    23   ar
    17    23    27    1
    18    27    28    1
    19    27    29    1
    20    27    30    1
    21    23    24   ar
    22    24    25   ar
    23    25    31    1
    24    31    32    1
    25    31    33    1
    26    31    34    1
    27    25    26   ar
    28     6     7   ar
    29     7     8   ar
    30    11    12   ar
    31    12    13   ar
    32    13    14   ar
    33    14     9   ar
    34     8     3   ar
    35    26    21   ar
    36     1     2    1
@<TRIPOS>MOLECULE
*****
 34 36 0 0 0
SMALL
GASTEIGER

@<TRIPOS>ATOM
      1 N          61.6951   87.7459   10.4328 N.pl3   1  UNL1       -0.2150
      2 H          60.9536   87.8205    9.7894 H       1  UNL1        0.1737
      3 C          64.1589   91.3697   11.4563 C.ar    1  UNL1        0.0002
      4 C          64.0402   90.2418   12.4380 C.ar    1  UNL1        0.0013
      5 C          63.2189   89.0339   12.0969 C.ar    1  UNL1        0.0159
      6 C          62.5163   88.9538   10.7739 C.ar    1  UNL1        0.0648
      7 C          62.6351   90.0817    9.7922 C.ar    1  UNL1        0.0159
      8 C          63.4564   91.2897   10.1334 C.ar    1  UNL1        0.0013
      9 C          66.0002   94.8693   11.1209 C.ar    1  UNL1        0.0590
     10 C          65.1789   93.6614   10.7797 C.ar    1  UNL1        0.0147
     11 C          64.9803   92.5777   11.7976 C.ar    1  UNL1        0.0027
     12 C          65.6029   92.7018   13.1565 C.ar    1  UNL1        0.0207
     13 C          66.4241   93.9097   13.4977 C.ar    1  UNL1        0.0984
     14 N          66.6228   94.9935   12.4799 N.ar    1  UNL1       -0.2482
     15 C          66.1988   95.9531   10.1031 C.3     1  UNL1        0.0458
     16 C          67.4818   94.8115    8.1536 C.3     1  UNL1        0.0004
     17 C          67.3767   95.9043    9.1757 C.3     1  UNL1        0.0063
     18 S          62.0035   86.4244   11.0717 S.O2    1  UNL1        0.0736
     19 O          61.0696   86.7514   12.1990 O.2     1  UNL1       -0.1499
     20 O          62.9375   86.0973    9.9444 O.2     1  UNL1       -0.1499
     21 C          62.3120   85.1028   11.7107 C.ar    1  UNL1        0.1251
     22 C          62.3519   84.9835   13.2054 C.ar    1  UNL1        0.0240
     23 C          62.6603   83.6620   13.8444 C.ar    1  UNL1        0.0727
     24 C          62.9289   82.4597   12.9887 C.ar    1  UNL1        0.0078
     25 C          62.8891   82.5789   11.4940 C.ar    1  UNL1        0.0727
     26 C          62.5806   83.9005   10.8550 C.ar    1  UNL1        0.0240
     27 C          62.7002   83.5427   15.3392 C.3     1  UNL1        0.4186
     28 F          62.7400   83.4235   16.8339 F       1  UNL1       -0.1659
     29 F          63.8792   82.6215   15.2343 F       1  UNL1       -0.1659
     30 F          61.5211   84.4640   15.4440 F       1  UNL1       -0.1659
     31 C          63.1577   81.3766   10.6382 C.3     1  UNL1        0.4186
     32 F          63.4263   80.1743    9.7825 F       1  UNL1       -0.1659
     33 F          62.5193   80.4978   11.6726 F       1  UNL1       -0.1659
     34 F          63.7961   82.2554    9.6038 F       1  UNL1       -0.1659
@<TRIPOS>BOND
     1    16    17    1
     2    17    15    1
     3    15     9    1
     4     9    10   ar
     5    10    11   ar
     6    11     3    1
     7     3     4   ar
     8     4     5   ar
     9     5     6   ar
    10     6     1    1
    11     1    18    1
    12    18    19    2
    13    18    20    2
    14    18    21    1
    15    21    22   ar
    16    22    23   ar
    17    23    27    1
    18    27    28    1
    19    27    29    1
    20    27    30    1
    21    23    24   ar
    22    24    25   ar
    23    25    31    1
    24    31    32    1
    25    31    33    1
    26    31    34    1
    27    25    26   ar
    28     6     7   ar
    29     7     8   ar
    30    11    12   ar
    31    12    13   ar
    32    13    14   ar
    33    14     9   ar
    34     8     3   ar
    35    26    21   ar
    36     1     2    1
@<TRIPOS>MOLECULE
*****
 34 36 0 0 0
SMALL
GASTEIGER

@<TRIPOS>ATOM
      1 N          63.5647   89.2020   15.2001 N.pl3   1  UNL1       -0.2150
      2 H          62.9696   89.3210   15.9754 H       1  UNL1        0.1737
      3 C          63.5477   85.3188   12.9262 C.ar    1  UNL1        0.0002
      4 C          63.1467   86.5912   12.2406 C.ar    1  UNL1        0.0013
      5 C          63.1524   87.8856   12.9985 C.ar    1  UNL1        0.0159
      6 C          63.5590   87.9076   14.4422 C.ar    1  UNL1        0.0648
      7 C          63.9601   86.6352   15.1279 C.ar    1  UNL1        0.0159
      8 C          63.9544   85.3407   14.3699 C.ar    1  UNL1        0.0013
      9 C          62.9851   81.4895   12.0485 C.ar    1  UNL1        0.0590
     10 C          62.9908   82.7839   12.8065 C.ar    1  UNL1        0.0147
     11 C          63.5421   84.0244   12.1682 C.ar    1  UNL1        0.0027
     12 C          64.0876   83.9705   10.7720 C.ar    1  UNL1        0.0207
     13 C          64.0819   82.6761   10.0141 C.ar    1  UNL1        0.0984
     14 N          63.5307   81.4356   10.6523 N.ar    1  UNL1       -0.2482
     15 C          62.4339   80.2491   12.6868 C.3     1  UNL1        0.0458
     16 C          60.2974   80.5413   14.1359 C.3     1  UNL1        0.0004
     17 C          61.7784   80.3265   14.0337 C.3     1  UNL1        0.0063
     18 S          64.4770   90.3149   14.7770 S.O2    1  UNL1        0.0736
     19 O          65.6435   89.3726   14.8136 O.2     1  UNL1       -0.1499
     20 O          63.3104   91.2572   14.7403 O.2     1  UNL1       -0.1499
     21 C          65.3893   91.4279   14.3538 C.ar    1  UNL1        0.1251
     22 C          66.5262   91.8435   15.2395 C.ar    1  UNL1        0.0240
     23 C          67.4385   92.9564   14.8163 C.ar    1  UNL1        0.0727
     24 C          67.2138   93.6538   13.5075 C.ar    1  UNL1        0.0078
     25 C          66.0768   93.2382   12.6218 C.ar    1  UNL1        0.0727
     26 C          65.1646   92.1252   13.0449 C.ar    1  UNL1        0.0240
     27 C          68.5755   93.3720   15.7021 C.3     1  UNL1        0.4186
     28 F          69.7125   93.7876   16.5878 F       1  UNL1       -0.1659
     29 F          68.2591   94.8132   15.4322 F       1  UNL1       -0.1659
     30 F          68.8920   91.9309   15.9720 F       1  UNL1       -0.1659
     31 C          65.8521   93.9355   11.3128 C.3     1  UNL1        0.4186
     32 F          65.6274   94.6329   10.0040 F       1  UNL1       -0.1659
     33 F          66.0553   95.2613   11.9843 F       1  UNL1       -0.1659
     34 F          65.6489   92.6097   10.6413 F       1  UNL1       -0.1659
@<TRIPOS>BOND
     1    16    17    1
     2    17    15    1
     3    15     9    1
     4     9    10   ar
     5    10    11   ar
     6    11     3    1
     7     3     4   ar
     8     4     5   ar
     9     5     6   ar
    10     6     1    1
    11     1    18    1
    12    18    19    2
    13    18    20    2
    14    18    21    1
    15    21    22   ar
    16    22    23   ar
    17    23    27    1
    18    27    28    1
    19    27    29    1
    20    27    30    1
    21    23    24   ar
    22    24    25   ar
    23    25    31    1
    24    31    32    1
    25    31    33    1
    26    31    34    1
    27    25    26   ar
    28     6     7   ar
    29     7     8   ar
    30    11    12   ar
    31    12    13   ar
    32    13    14   ar
    33    14     9   ar
    34     8     3   ar
    35    26    21   ar
    36     1     2    1
@<TRIPOS>MOLECULE
*****
 34 36 0 0 0
SMALL
GASTEIGER

@<TRIPOS>ATOM
      1 N          63.4956   87.7880   16.1097 N.pl3   1  UNL1       -0.2150
      2 H          63.3395   87.9239   17.0722 H       1  UNL1        0.1737
      3 C          62.9042   83.7162   14.2875 C.ar    1  UNL1        0.0002
      4 C          62.4018   83.9982   15.6724 C.ar    1  UNL1        0.0013
      5 C          62.5989   85.3555   16.2798 C.ar    1  UNL1        0.0159
      6 C          63.2985   86.4307   15.5023 C.ar    1  UNL1        0.0648
      7 C          63.8008   86.1487   14.1173 C.ar    1  UNL1        0.0159
      8 C          63.6037   84.7913   13.5099 C.ar    1  UNL1        0.0013
      9 C          62.8454   80.7700   11.6292 C.ar    1  UNL1        0.0590
     10 C          63.0425   82.1272   12.2366 C.ar    1  UNL1        0.0147
     11 C          62.7070   82.3588   13.6801 C.ar    1  UNL1        0.0027
     12 C          62.1744   81.2332   14.5162 C.ar    1  UNL1        0.0207
     13 C          61.9773   79.8759   13.9088 C.ar    1  UNL1        0.0984
     14 N          62.3128   79.6443   12.4653 N.ar    1  UNL1       -0.2482
     15 C          63.1809   80.5384   10.1856 C.3     1  UNL1        0.0458
     16 C          63.0152   77.9481   10.0731 C.3     1  UNL1        0.0004
     17 C          62.7024   79.2961    9.4944 C.3     1  UNL1        0.0063
     18 S          63.9305   88.9382   15.2506 S.O2    1  UNL1        0.0736
     19 O          62.6571   89.6617   15.5747 O.2     1  UNL1       -0.1499
     20 O          65.2039   88.2146   14.9265 O.2     1  UNL1       -0.1499
     21 C          64.3654   90.0883   14.3915 C.ar    1  UNL1        0.1251
     22 C          65.3501   91.0888   14.9200 C.ar    1  UNL1        0.0240
     23 C          65.7850   92.2390   14.0609 C.ar    1  UNL1        0.0727
     24 C          65.2352   92.3887   12.6734 C.ar    1  UNL1        0.0078
     25 C          64.2505   91.3882   12.1450 C.ar    1  UNL1        0.0727
     26 C          63.8156   90.2380   13.0040 C.ar    1  UNL1        0.0240
     27 C          66.7698   93.2395   14.5895 C.3     1  UNL1        0.4186
     28 F          67.7545   94.2400   15.1180 F       1  UNL1       -0.1659
     29 F          67.2062   92.2573   15.6358 F       1  UNL1       -0.1659
     30 F          66.3333   94.2217   13.5432 F       1  UNL1       -0.1659
     31 C          63.7006   91.5378   10.7574 C.3     1  UNL1        0.4186
     32 F          63.1508   91.6875    9.3699 F       1  UNL1       -0.1659
     33 F          64.8003   92.5025   10.4257 F       1  UNL1       -0.1659
     34 F          62.6009   90.5732   11.0891 F       1  UNL1       -0.1659
@<TRIPOS>BOND
     1    16    17    1
     2    17    15    1
     3    15     9    1
     4     9    10   ar
     5    10    11   ar
     6    11     3    1
     7     3     4   ar
     8     4     5   ar
     9     5     6   ar
    10     6     1    1
    11     1    18    1
    12    18    19    2
    13    18    20    2
    14    18    21    1
    15    21    22   ar
    16    22    23   ar
    17    23    27    1
    18    27    28    1
    19    27    29    1
    20    27    30    1
    21    23    24   ar
    22    24    25   ar
    23    25    31    1
    24    31    32    1
    25    31    33    1
    26    31    34    1
    27    25    26   ar
    28     6     7   ar
    29     7     8   ar
    30    11    12   ar
    31    12    13   ar
    32    13    14   ar
    33    14     9   ar
    34     8     3   ar
    35    26    21   ar
    36     1     2    1
