@<TRIPOS>MOLECULE
*****
 29 31 0 0 0
SMALL
GASTEIGER

@<TRIPOS>ATOM
      1 C          65.3077   91.9356   12.4703 C.ar    1  UNL1       -0.0004
      2 C          65.0657   90.9729   13.5948 C.ar    1  UNL1       -0.0024
      3 C          63.9798   89.9444   13.4810 C.ar    1  UNL1       -0.0002
      4 C          63.1358   89.8787   12.2427 C.ar    1  UNL1        0.0030
      5 C          62.0499   88.8501   12.1289 C.ar    1  UNL1        0.0369
      6 C          61.2059   88.7844   10.8906 C.ar    1  UNL1        0.1386
      7 C          61.4479   89.7472    9.7661 C.ar    1  UNL1        0.0369
      8 C          62.5338   90.7757    9.8799 C.ar    1  UNL1        0.0031
      9 C          63.3778   90.8414   11.1182 C.ar    1  UNL1       -0.0001
     10 C          64.4637   91.8699   11.2320 C.ar    1  UNL1       -0.0024
     11 C          66.3937   92.9641   12.5841 C.3     1  UNL1        0.1240
     12 N          67.2252   93.0421   13.8300 N.ar    1  UNL1       -0.3045
     13 C          68.5013   92.2965   14.0865 C.ar    1  UNL1        0.0983
     14 C          68.9915   92.6730   15.4532 C.ar    1  UNL1        0.1193
     15 N          68.0183   93.6512   16.0415 N.ar    1  UNL1       -0.2223
     16 C          66.9267   93.8793   15.0383 C.ar    1  UNL1        0.1788
     17 C          66.0379   95.2848   11.4715 C.3     1  UNL1        0.0197
     18 C          66.6480   93.9146   11.4519 C.3     1  UNL1        0.0827
     19 N          67.5124   93.4949   10.3001 N.3     1  UNL1       -0.2696
     20 C          67.7183   94.4230    9.1397 C.3     1  UNL1        0.0897
     21 C          68.1710   92.1473   10.3087 C.3     1  UNL1        0.0897
     22 O          60.1200   87.7560   10.7768 O.3     1  UNL1       -0.4751
     23 C          59.5989   87.3616    9.4266 C.3     1  UNL1        0.2103
     24 C          60.4051   86.4516    8.5480 C.3     1  UNL1        0.0724
     25 C          61.1852   85.9893    9.7428 C.3     1  UNL1        0.0093
     26 C          59.6250   86.9140    7.3532 C.3     1  UNL1        0.0093
     27 C          61.2113   85.5416    7.6695 C.2     1  UNL1        0.0532
     28 O          60.5619   84.8543    6.5050 O.co2   1  UNL1       -0.5491
     29 O          62.6669   85.3190    7.9553 O.co2   1  UNL1       -0.5491
@<TRIPOS>UNITY_ATOM_ATTR
28 1
charge -1
@<TRIPOS>BOND
     1    18    17    1
     2    18    11    1
     3    11     1    1
     4     1     2   ar
     5     2     3   ar
     6     3     4   ar
     7     4     5   ar
     8     5     6   ar
     9     6    22    1
    10    22    23    1
    11    23    24    1
    12    24    25    1
    13    24    26    1
    14    24    27    1
    15    27    28   ar
    16    27    29   ar
    17     6     7   ar
    18     7     8   ar
    19     8     9   ar
    20     9    10   ar
    21    11    12    1
    22    12    13   ar
    23    13    14   ar
    24    14    15   ar
    25    15    16   ar
    26    18    19    1
    27    19    20    1
    28    19    21    1
    29    10     1   ar
    30    16    12   ar
    31     9     4   ar
@<TRIPOS>MOLECULE
*****
 29 31 0 0 0
SMALL
GASTEIGER

@<TRIPOS>ATOM
      1 C          63.5112   85.6154   12.8863 C.ar    1  UNL1       -0.0004
      2 C          64.1863   85.5561   14.2244 C.ar    1  UNL1       -0.0024
      3 C          64.5377   86.8244   14.9440 C.ar    1  UNL1       -0.0002
      4 C          64.2140   88.1520   14.3254 C.ar    1  UNL1        0.0030
      5 C          64.5654   89.4204   15.0451 C.ar    1  UNL1        0.0369
      6 C          64.2416   90.7480   14.4266 C.ar    1  UNL1        0.1386
      7 C          63.5664   90.8073   13.0884 C.ar    1  UNL1        0.0369
      8 C          63.2150   89.5390   12.3688 C.ar    1  UNL1        0.0031
      9 C          63.5388   88.2113   12.9873 C.ar    1  UNL1       -0.0001
     10 C          63.1874   86.9430   12.2677 C.ar    1  UNL1       -0.0024
     11 C          63.1598   84.3470   12.1666 C.3     1  UNL1        0.1240
     12 N          62.6598   83.1613   12.9373 N.ar    1  UNL1       -0.3045
     13 C          62.3907   81.7958   12.3779 C.ar    1  UNL1        0.0983
     14 C          61.9058   80.9234   13.4976 C.ar    1  UNL1        0.1193
     15 N          61.8753   81.7497   14.7491 N.ar    1  UNL1       -0.2223
     16 C          62.3413   83.1327   14.4028 C.ar    1  UNL1        0.1788
     17 C          64.2591   83.2747   10.0709 C.3     1  UNL1        0.0197
     18 C          63.3082   84.2645   10.6763 C.3     1  UNL1        0.0827
     19 N          62.5059   85.1717    9.7912 N.3     1  UNL1       -0.2696
     20 C          61.2193   85.7602   10.2897 C.3     1  UNL1        0.0897
     21 C          62.9902   85.4904    8.4078 C.3     1  UNL1        0.0897
     22 O          64.5930   92.0163   15.1462 O.3     1  UNL1       -0.4751
     23 C          66.0189   92.4792   15.1974 C.3     1  UNL1        0.2103
     24 C          66.8895   92.3624   13.9816 C.3     1  UNL1        0.0724
     25 C          67.7063   91.3079   14.6677 C.3     1  UNL1        0.0093
     26 C          66.0727   93.4169   13.2954 C.3     1  UNL1        0.0093
     27 C          67.7601   92.2457   12.7657 C.2     1  UNL1        0.0532
     28 O          69.1390   91.6667   12.8833 O.co2   1  UNL1       -0.5491
     29 O          67.2520   92.7078   11.4322 O.co2   1  UNL1       -0.5491
@<TRIPOS>UNITY_ATOM_ATTR
28 1
charge -1
@<TRIPOS>BOND
     1    18    17    1
     2    18    11    1
     3    11     1    1
     4     1     2   ar
     5     2     3   ar
     6     3     4   ar
     7     4     5   ar
     8     5     6   ar
     9     6    22    1
    10    22    23    1
    11    23    24    1
    12    24    25    1
    13    24    26    1
    14    24    27    1
    15    27    28   ar
    16    27    29   ar
    17     6     7   ar
    18     7     8   ar
    19     8     9   ar
    20     9    10   ar
    21    11    12    1
    22    12    13   ar
    23    13    14   ar
    24    14    15   ar
    25    15    16   ar
    26    18    19    1
    27    19    20    1
    28    19    21    1
    29    10     1   ar
    30    16    12   ar
    31     9     4   ar
@<TRIPOS>MOLECULE
*****
 29 31 0 0 0
SMALL
GASTEIGER

@<TRIPOS>ATOM
      1 C          62.8498   85.7411   12.1617 C.ar    1  UNL1       -0.0004
      2 C          63.1872   87.1646   12.4930 C.ar    1  UNL1       -0.0024
      3 C          62.6287   88.2808   11.6611 C.ar    1  UNL1       -0.0002
      4 C          61.7328   87.9736   10.4979 C.ar    1  UNL1        0.0030
      5 C          61.1743   89.0899    9.6660 C.ar    1  UNL1        0.0369
      6 C          60.2784   88.7826    8.5028 C.ar    1  UNL1        0.1386
      7 C          59.9410   87.3590    8.1715 C.ar    1  UNL1        0.0369
      8 C          60.4995   86.2428    9.0034 C.ar    1  UNL1        0.0031
      9 C          61.3954   86.5501   10.1666 C.ar    1  UNL1       -0.0001
     10 C          61.9539   85.4339   10.9985 C.ar    1  UNL1       -0.0024
     11 C          63.4083   84.6248   12.9936 C.3     1  UNL1        0.1240
     12 N          63.3352   83.2110   12.4978 N.ar    1  UNL1       -0.3045
     13 C          62.5491   82.0969   13.1229 C.ar    1  UNL1        0.0983
     14 C          62.7635   80.8604   12.3012 C.ar    1  UNL1        0.1193
     15 N          63.6822   81.2103   11.1683 N.ar    1  UNL1       -0.2223
     16 C          64.0355   82.6630   11.2898 C.ar    1  UNL1        0.1788
     17 C          65.5338   84.9509   14.4515 C.3     1  UNL1        0.0197
     18 C          64.0397   84.9223   14.3212 C.3     1  UNL1        0.0827
     19 N          63.1772   85.1912   15.5186 N.3     1  UNL1       -0.2696
     20 C          63.5657   86.2586   16.4983 C.3     1  UNL1        0.0897
     21 C          61.9262   84.3928   15.7363 C.3     1  UNL1        0.0897
     22 O          59.7199   89.8989    7.6709 O.3     1  UNL1       -0.4751
     23 C          59.3927   89.6659    6.2256 C.3     1  UNL1        0.2103
     24 C          58.7891   90.7678    5.4063 C.3     1  UNL1        0.0724
     25 C          60.1615   91.2209    5.0047 C.3     1  UNL1        0.0093
     26 C          57.4168   90.3147    5.8078 C.3     1  UNL1        0.0093
     27 C          58.1856   91.8697    4.5869 C.2     1  UNL1        0.0532
     28 O          59.0198   92.5921    3.5708 O.co2   1  UNL1       -0.5491
     29 O          56.7478   92.2493    4.7835 O.co2   1  UNL1       -0.5491
@<TRIPOS>UNITY_ATOM_ATTR
28 1
charge -1
@<TRIPOS>BOND
     1    18    17    1
     2    18    11    1
     3    11     1    1
     4     1     2   ar
     5     2     3   ar
     6     3     4   ar
     7     4     5   ar
     8     5     6   ar
     9     6    22    1
    10    22    23    1
    11    23    24    1
    12    24    25    1
    13    24    26    1
    14    24    27    1
    15    27    28   ar
    16    27    29   ar
    17     6     7   ar
    18     7     8   ar
    19     8     9   ar
    20     9    10   ar
    21    11    12    1
    22    12    13   ar
    23    13    14   ar
    24    14    15   ar
    25    15    16   ar
    26    18    19    1
    27    19    20    1
    28    19    21    1
    29    10     1   ar
    30    16    12   ar
    31     9     4   ar
@<TRIPOS>MOLECULE
*****
 29 31 0 0 0
SMALL
GASTEIGER

@<TRIPOS>ATOM
      1 C          65.2440   92.0658   12.4238 C.ar    1  UNL1       -0.0004
      2 C          64.9704   91.0950   13.5341 C.ar    1  UNL1       -0.0024
      3 C          63.8946   90.0614   13.3784 C.ar    1  UNL1       -0.0002
      4 C          63.0923   89.9987   12.1126 C.ar    1  UNL1        0.0030
      5 C          62.0164   88.9651   11.9570 C.ar    1  UNL1        0.0369
      6 C          61.2141   88.9023   10.6911 C.ar    1  UNL1        0.1386
      7 C          61.4877   89.8732    9.5808 C.ar    1  UNL1        0.0369
      8 C          62.5636   90.9067    9.7365 C.ar    1  UNL1        0.0031
      9 C          63.3659   90.9695   11.0023 C.ar    1  UNL1       -0.0001
     10 C          64.4417   92.0030   11.1579 C.ar    1  UNL1       -0.0024
     11 C          66.3199   93.0994   12.5794 C.3     1  UNL1        0.1240
     12 N          66.5652   94.0970   11.4865 N.ar    1  UNL1       -0.3045
     13 C          67.2585   93.8257   10.1843 C.ar    1  UNL1        0.0983
     14 C          67.2819   95.1022    9.3968 C.ar    1  UNL1        0.1193
     15 N          66.6031   96.1624   10.2123 N.ar    1  UNL1       -0.2223
     16 C          66.1601   95.5412   11.5038 C.ar    1  UNL1        0.1788
     17 C          66.6840   93.9220   15.0168 C.3     1  UNL1        0.0197
     18 C          67.1506   93.1353   13.8279 C.3     1  UNL1        0.0827
     19 N          68.4478   92.3845   13.8875 N.3     1  UNL1       -0.2696
     20 C          68.9125   91.5946   12.6999 C.3     1  UNL1        0.0897
     21 C          69.2802   92.4235   15.1347 C.3     1  UNL1        0.0897
     22 O          60.1382   87.8688   10.5355 O.3     1  UNL1       -0.4751
     23 C          60.5033   86.4193   10.4087 C.3     1  UNL1        0.2103
     24 C          61.2723   85.9415    9.2128 C.3     1  UNL1        0.0724
     25 C          62.4115   85.5443   10.1040 C.3     1  UNL1        0.0093
     26 C          60.1330   86.3386    8.3215 C.3     1  UNL1        0.0093
     27 C          62.0412   85.4636    8.0169 C.2     1  UNL1        0.0532
     28 O          63.5240   85.2571    8.1121 O.co2   1  UNL1       -0.5491
     29 O          61.3276   85.1921    6.7258 O.co2   1  UNL1       -0.5491
@<TRIPOS>UNITY_ATOM_ATTR
28 1
charge -1
@<TRIPOS>BOND
     1    18    17    1
     2    18    11    1
     3    11     1    1
     4     1     2   ar
     5     2     3   ar
     6     3     4   ar
     7     4     5   ar
     8     5     6   ar
     9     6    22    1
    10    22    23    1
    11    23    24    1
    12    24    25    1
    13    24    26    1
    14    24    27    1
    15    27    28   ar
    16    27    29   ar
    17     6     7   ar
    18     7     8   ar
    19     8     9   ar
    20     9    10   ar
    21    11    12    1
    22    12    13   ar
    23    13    14   ar
    24    14    15   ar
    25    15    16   ar
    26    18    19    1
    27    19    20    1
    28    19    21    1
    29    10     1   ar
    30    16    12   ar
    31     9     4   ar
@<TRIPOS>MOLECULE
*****
 29 31 0 0 0
SMALL
GASTEIGER

@<TRIPOS>ATOM
      1 C          62.4129   88.2124   10.4757 C.ar    1  UNL1       -0.0004
      2 C          62.3949   89.6420   10.0220 C.ar    1  UNL1       -0.0024
      3 C          62.8953   90.7241   10.9323 C.ar    1  UNL1       -0.0002
      4 C          63.4136   90.3766   12.2963 C.ar    1  UNL1        0.0030
      5 C          63.9139   91.4588   13.2066 C.ar    1  UNL1        0.0369
      6 C          64.4322   91.1113   14.5707 C.ar    1  UNL1        0.1386
      7 C          64.4502   89.6817   15.0244 C.ar    1  UNL1        0.0369
      8 C          63.9498   88.5996   14.1141 C.ar    1  UNL1        0.0031
      9 C          63.4315   88.9470   12.7501 C.ar    1  UNL1       -0.0001
     10 C          62.9312   87.8649   11.8398 C.ar    1  UNL1       -0.0024
     11 C          61.9126   87.1302    9.5654 C.3     1  UNL1        0.1240
     12 N          60.6640   87.3438    8.7619 N.ar    1  UNL1       -0.3045
     13 C          60.1182   88.6679    8.3159 C.ar    1  UNL1        0.0983
     14 C          58.8590   88.4132    7.5417 C.ar    1  UNL1        0.1193
     15 N          58.6265   86.9317    7.5092 N.ar    1  UNL1       -0.2223
     16 C          59.7421   86.2708    8.2633 C.ar    1  UNL1        0.1788
     17 C          63.3598   85.4752    8.1810 C.3     1  UNL1        0.0197
     18 C          62.6607   85.8346    9.4586 C.3     1  UNL1        0.0827
     19 N          62.7099   84.8982   10.6294 N.3     1  UNL1       -0.2696
     20 C          63.6369   83.7190   10.6083 C.3     1  UNL1        0.0897
     21 C          61.8322   85.1409   11.8213 C.3     1  UNL1        0.0897
     22 O          64.9325   92.1934   15.4810 O.3     1  UNL1       -0.4751
     23 C          66.3330   92.7101   15.3329 C.3     1  UNL1        0.2103
     24 C          67.0605   92.5428   14.0319 C.3     1  UNL1        0.0724
     25 C          67.6919   91.2834   14.5469 C.3     1  UNL1        0.0093
     26 C          66.4292   93.8022   13.5170 C.3     1  UNL1        0.0093
     27 C          67.7881   92.3755   12.7309 C.2     1  UNL1        0.0532
     28 O          69.0988   91.6470   12.6928 O.co2   1  UNL1       -0.5491
     29 O          67.2050   92.9367   11.4680 O.co2   1  UNL1       -0.5491
@<TRIPOS>UNITY_ATOM_ATTR
28 1
charge -1
@<TRIPOS>BOND
     1    18    17    1
     2    18    11    1
     3    11     1    1
     4     1     2   ar
     5     2     3   ar
     6     3     4   ar
     7     4     5   ar
     8     5     6   ar
     9     6    22    1
    10    22    23    1
    11    23    24    1
    12    24    25    1
    13    24    26    1
    14    24    27    1
    15    27    28   ar
    16    27    29   ar
    17     6     7   ar
    18     7     8   ar
    19     8     9   ar
    20     9    10   ar
    21    11    12    1
    22    12    13   ar
    23    13    14   ar
    24    14    15   ar
    25    15    16   ar
    26    18    19    1
    27    19    20    1
    28    19    21    1
    29    10     1   ar
    30    16    12   ar
    31     9     4   ar
@<TRIPOS>MOLECULE
*****
 29 31 0 0 0
SMALL
GASTEIGER

@<TRIPOS>ATOM
      1 C          63.5197   85.2061   13.5680 C.ar    1  UNL1       -0.0004
      2 C          64.3454   85.6215   14.7494 C.ar    1  UNL1       -0.0024
      3 C          64.6853   87.0678   14.9554 C.ar    1  UNL1       -0.0002
      4 C          64.1995   88.0988   13.9801 C.ar    1  UNL1        0.0030
      5 C          64.5394   89.5452   14.1862 C.ar    1  UNL1        0.0369
      6 C          64.0536   90.5761   13.2109 C.ar    1  UNL1        0.1386
      7 C          63.2279   90.1606   12.0295 C.ar    1  UNL1        0.0369
      8 C          62.8880   88.7142   11.8235 C.ar    1  UNL1        0.0031
      9 C          63.3738   87.6833   12.7988 C.ar    1  UNL1       -0.0001
     10 C          63.0339   86.2370   12.5927 C.ar    1  UNL1       -0.0024
     11 C          63.1798   83.7596   13.3619 C.3     1  UNL1        0.1240
     12 N          63.5478   83.0784   12.0772 N.ar    1  UNL1       -0.3045
     13 C          62.7570   82.0045   11.3907 C.ar    1  UNL1        0.0983
     14 C          63.4917   81.6139   10.1426 C.ar    1  UNL1        0.1193
     15 N          64.7365   82.4464   10.0577 N.ar    1  UNL1       -0.2223
     16 C          64.7712   83.3515   11.2534 C.ar    1  UNL1        0.1788
     17 C          61.9598   83.7103   15.6552 C.3     1  UNL1        0.0197
     18 C          62.4719   82.9945   14.4405 C.3     1  UNL1        0.0827
     19 N          62.2761   81.5136   14.3045 N.3     1  UNL1       -0.2696
     20 C          60.8935   80.9499   14.1603 C.3     1  UNL1        0.0897
     21 C          63.4629   80.5963   14.3128 C.3     1  UNL1        0.0897
     22 O          64.3935   92.0224   13.4170 O.3     1  UNL1       -0.4751
     23 C          65.4458   92.4111   14.4127 C.3     1  UNL1        0.2103
     24 C          66.8959   92.3510   14.0336 C.3     1  UNL1        0.0724
     25 C          67.2071   91.6680   15.3323 C.3     1  UNL1        0.0093
     26 C          66.5846   93.0339   12.7349 C.3     1  UNL1        0.0093
     27 C          68.3459   92.2908   13.6545 C.2     1  UNL1        0.0532
     28 O          69.3843   92.8746   14.5660 O.co2   1  UNL1       -0.5491
     29 O          68.7575   91.6468   12.3638 O.co2   1  UNL1       -0.5491
@<TRIPOS>UNITY_ATOM_ATTR
28 1
charge -1
@<TRIPOS>BOND
     1    18    17    1
     2    18    11    1
     3    11     1    1
     4     1     2   ar
     5     2     3   ar
     6     3     4   ar
     7     4     5   ar
     8     5     6   ar
     9     6    22    1
    10    22    23    1
    11    23    24    1
    12    24    25    1
    13    24    26    1
    14    24    27    1
    15    27    28   ar
    16    27    29   ar
    17     6     7   ar
    18     7     8   ar
    19     8     9   ar
    20     9    10   ar
    21    11    12    1
    22    12    13   ar
    23    13    14   ar
    24    14    15   ar
    25    15    16   ar
    26    18    19    1
    27    19    20    1
    28    19    21    1
    29    10     1   ar
    30    16    12   ar
    31     9     4   ar
@<TRIPOS>MOLECULE
*****
 29 31 0 0 0
SMALL
GASTEIGER

@<TRIPOS>ATOM
      1 C          63.2710   86.3653   12.6360 C.ar    1  UNL1       -0.0004
      2 C          63.9529   86.1254   13.9503 C.ar    1  UNL1       -0.0024
      3 C          64.4413   87.2865   14.7648 C.ar    1  UNL1       -0.0002
      4 C          64.2477   88.6875   14.2649 C.ar    1  UNL1        0.0030
      5 C          64.7361   89.8486   15.0794 C.ar    1  UNL1        0.0369
      6 C          64.5426   91.2495   14.5795 C.ar    1  UNL1        0.1386
      7 C          63.8607   91.4894   13.2651 C.ar    1  UNL1        0.0369
      8 C          63.3723   90.3283   12.4507 C.ar    1  UNL1        0.0031
      9 C          63.5659   88.9273   12.9506 C.ar    1  UNL1       -0.0001
     10 C          63.0775   87.7662   12.1361 C.ar    1  UNL1       -0.0024
     11 C          62.7826   85.2042   11.8215 C.3     1  UNL1        0.1240
     12 N          62.2738   85.4268   10.4281 N.ar    1  UNL1       -0.3045
     13 C          60.9391   86.0029   10.0584 C.ar    1  UNL1        0.0983
     14 C          60.8507   86.0445    8.5616 C.ar    1  UNL1        0.1193
     15 N          62.1308   85.4941    8.0062 N.ar    1  UNL1       -0.2223
     16 C          63.0103   85.1123    9.1598 C.ar    1  UNL1        0.1788
     17 C          62.1681   83.5558   13.7334 C.3     1  UNL1        0.0197
     18 C          62.8031   83.8206   12.4004 C.3     1  UNL1        0.0827
     19 N          63.4585   82.7017   11.6464 N.3     1  UNL1       -0.2696
     20 C          62.8413   81.3345   11.6467 C.3     1  UNL1        0.0897
     21 C          64.7310   82.9500   10.8921 C.3     1  UNL1        0.0897
     22 O          65.0310   92.4106   15.3939 O.3     1  UNL1       -0.4751
     23 C          66.4206   92.9377   15.1906 C.3     1  UNL1        0.2103
     24 C          67.1405   92.6767   13.9009 C.3     1  UNL1        0.0724
     25 C          66.3618   93.7774   13.2435 C.3     1  UNL1        0.0093
     26 C          67.9192   91.5761   14.5582 C.3     1  UNL1        0.0093
     27 C          67.8604   92.4157   12.6111 C.2     1  UNL1        0.0532
     28 O          67.3382   92.9956   11.3300 O.co2   1  UNL1       -0.5491
     29 O          69.1026   91.5749   12.6023 O.co2   1  UNL1       -0.5491
@<TRIPOS>UNITY_ATOM_ATTR
28 1
charge -1
@<TRIPOS>BOND
     1    18    17    1
     2    18    11    1
     3    11     1    1
     4     1     2   ar
     5     2     3   ar
     6     3     4   ar
     7     4     5   ar
     8     5     6   ar
     9     6    22    1
    10    22    23    1
    11    23    24    1
    12    24    25    1
    13    24    26    1
    14    24    27    1
    15    27    28   ar
    16    27    29   ar
    17     6     7   ar
    18     7     8   ar
    19     8     9   ar
    20     9    10   ar
    21    11    12    1
    22    12    13   ar
    23    13    14   ar
    24    14    15   ar
    25    15    16   ar
    26    18    19    1
    27    19    20    1
    28    19    21    1
    29    10     1   ar
    30    16    12   ar
    31     9     4   ar
@<TRIPOS>MOLECULE
*****
 29 31 0 0 0
SMALL
GASTEIGER

@<TRIPOS>ATOM
      1 C          62.8064   84.8247   11.7982 C.ar    1  UNL1       -0.0004
      2 C          63.2256   84.3552   10.4367 C.ar    1  UNL1       -0.0024
      3 C          62.6353   84.9868    9.2109 C.ar    1  UNL1       -0.0002
      4 C          61.6259   86.0879    9.3466 C.ar    1  UNL1        0.0030
      5 C          61.0356   86.7196    8.1207 C.ar    1  UNL1        0.0369
      6 C          60.0262   87.8207    8.2564 C.ar    1  UNL1        0.1386
      7 C          59.6070   88.2903    9.6180 C.ar    1  UNL1        0.0369
      8 C          60.1972   87.6587   10.8438 C.ar    1  UNL1        0.0031
      9 C          61.2067   86.5575   10.7081 C.ar    1  UNL1       -0.0001
     10 C          61.7969   85.9259   11.9339 C.ar    1  UNL1       -0.0024
     11 C          63.3966   84.1931   13.0241 C.3     1  UNL1        0.1240
     12 N          63.0301   82.7863   13.3934 N.ar    1  UNL1       -0.3045
     13 C          63.5417   81.5398   12.7342 C.ar    1  UNL1        0.0983
     14 C          62.9153   80.3621   13.4202 C.ar    1  UNL1        0.1193
     15 N          62.0166   80.8806   14.5034 N.ar    1  UNL1       -0.2223
     16 C          62.0876   82.3788   14.4869 C.ar    1  UNL1        0.1788
     17 C          65.8151   84.6319   13.8657 C.3     1  UNL1        0.0197
     18 C          64.3534   84.9684   13.8806 C.3     1  UNL1        0.0827
     19 N          63.8485   86.0800   14.7519 N.3     1  UNL1       -0.2696
     20 C          64.1346   87.5070   14.3883 C.3     1  UNL1        0.0897
     21 C          63.0574   85.7648   15.9868 C.3     1  UNL1        0.0897
     22 O          59.4359   88.4524    7.0306 O.3     1  UNL1       -0.4751
     23 C          59.9967   89.7413    6.5069 C.3     1  UNL1        0.2103
     24 C          59.1485   90.6360    5.6525 C.3     1  UNL1        0.0724
     25 C          57.9122   90.0598    6.2765 C.3     1  UNL1        0.0093
     26 C          60.3849   91.2123    5.0286 C.3     1  UNL1        0.0093
     27 C          58.3003   91.5307    4.7981 C.2     1  UNL1        0.0532
     28 O          58.9338   92.3587    3.7196 O.co2   1  UNL1       -0.5491
     29 O          56.8187   91.5975    5.0222 O.co2   1  UNL1       -0.5491
@<TRIPOS>UNITY_ATOM_ATTR
28 1
charge -1
@<TRIPOS>BOND
     1    18    17    1
     2    18    11    1
     3    11     1    1
     4     1     2   ar
     5     2     3   ar
     6     3     4   ar
     7     4     5   ar
     8     5     6   ar
     9     6    22    1
    10    22    23    1
    11    23    24    1
    12    24    25    1
    13    24    26    1
    14    24    27    1
    15    27    28   ar
    16    27    29   ar
    17     6     7   ar
    18     7     8   ar
    19     8     9   ar
    20     9    10   ar
    21    11    12    1
    22    12    13   ar
    23    13    14   ar
    24    14    15   ar
    25    15    16   ar
    26    18    19    1
    27    19    20    1
    28    19    21    1
    29    10     1   ar
    30    16    12   ar
    31     9     4   ar
@<TRIPOS>MOLECULE
*****
 29 31 0 0 0
SMALL
GASTEIGER

@<TRIPOS>ATOM
      1 C          62.5177   84.8162   11.5387 C.ar    1  UNL1       -0.0004
      2 C          62.8705   84.3559   10.1554 C.ar    1  UNL1       -0.0024
      3 C          62.2790   85.0454    8.9619 C.ar    1  UNL1       -0.0002
      4 C          61.3346   86.1952    9.1516 C.ar    1  UNL1        0.0030
      5 C          60.7431   86.8847    7.9580 C.ar    1  UNL1        0.0369
      6 C          59.7987   88.0346    8.1477 C.ar    1  UNL1        0.1386
      7 C          59.4458   88.4949    9.5311 C.ar    1  UNL1        0.0369
      8 C          60.0373   87.8054   10.7246 C.ar    1  UNL1        0.0031
      9 C          60.9817   86.6555   10.5349 C.ar    1  UNL1       -0.0001
     10 C          61.5733   85.9660   11.7285 C.ar    1  UNL1       -0.0024
     11 C          63.1092   84.1267   12.7324 C.3     1  UNL1        0.1240
     12 N          63.2275   84.8562   14.0377 N.ar    1  UNL1       -0.3045
     13 C          64.2513   85.8992   14.3752 C.ar    1  UNL1        0.0983
     14 C          63.9993   86.3585   15.7807 C.ar    1  UNL1        0.1193
     15 N          62.8197   85.5993   16.3120 N.ar    1  UNL1       -0.2223
     16 C          62.3427   84.6708   15.2347 C.ar    1  UNL1        0.1788
     17 C          64.9845   82.4176   12.1735 C.3     1  UNL1        0.0197
     18 C          63.5824   82.7077   12.6207 C.3     1  UNL1        0.0827
     19 N          62.6535   81.5787   12.9562 N.3     1  UNL1       -0.2696
     20 C          61.7191   81.6979   14.1236 C.3     1  UNL1        0.0897
     21 C          62.6589   80.3305   12.1243 C.3     1  UNL1        0.0897
     22 O          59.2072   88.7241    6.9542 O.3     1  UNL1       -0.4751
     23 C          60.0031   89.7584    6.2147 C.3     1  UNL1        0.2103
     24 C          59.2999   90.8371    5.4453 C.3     1  UNL1        0.0724
     25 C          60.6076   91.2621    4.8460 C.3     1  UNL1        0.0093
     26 C          57.9922   90.4121    6.0446 C.3     1  UNL1        0.0093
     27 C          58.5968   91.9158    4.6759 C.2     1  UNL1        0.0532
     28 O          57.1219   92.1240    4.8535 O.co2   1  UNL1       -0.5491
     29 O          59.3684   92.7864    3.7290 O.co2   1  UNL1       -0.5491
@<TRIPOS>UNITY_ATOM_ATTR
28 1
charge -1
@<TRIPOS>BOND
     1    18    17    1
     2    18    11    1
     3    11     1    1
     4     1     2   ar
     5     2     3   ar
     6     3     4   ar
     7     4     5   ar
     8     5     6   ar
     9     6    22    1
    10    22    23    1
    11    23    24    1
    12    24    25    1
    13    24    26    1
    14    24    27    1
    15    27    28   ar
    16    27    29   ar
    17     6     7   ar
    18     7     8   ar
    19     8     9   ar
    20     9    10   ar
    21    11    12    1
    22    12    13   ar
    23    13    14   ar
    24    14    15   ar
    25    15    16   ar
    26    18    19    1
    27    19    20    1
    28    19    21    1
    29    10     1   ar
    30    16    12   ar
    31     9     4   ar
