@<TRIPOS>MOLECULE
*****
 39 42 0 0 0
SMALL
GASTEIGER

@<TRIPOS>ATOM
      1 C          63.1645   85.9358   13.0796 C.3     1  UNL1        0.1554
      2 C          62.7052   83.8243   14.5222 C.2     1  UNL1        0.4017
      3 O          61.6489   84.5722   15.2805 O.2     1  UNL1       -0.2264
      4 N          63.4630   84.5062   13.4218 N.am    1  UNL1       -0.2637
      5 H          64.1563   84.0153   12.9241 H       1  UNL1        0.1532
      6 O          63.0037   82.3947   14.8644 O.3     1  UNL1       -0.4419
      7 C          61.2994   81.3034   14.2286 C.3     1  UNL1        0.0437
      8 C          62.7522   81.3138   13.8553 C.3     1  UNL1        0.1378
      9 C          64.2049   81.3243   13.4820 C.3     1  UNL1        0.0437
     10 C          62.5006   80.2329   12.8461 C.3     1  UNL1        0.0437
     11 C          63.8654   87.0436   13.8087 C.2     1  UNL1        0.2411
     12 O          64.8639   86.7218   14.8808 O.2     1  UNL1       -0.2733
     13 N          63.5677   88.4732   13.4658 N.am    1  UNL1       -0.2966
     14 H          62.9123   88.6844   12.7621 H       1  UNL1        0.1499
     15 C          64.2686   89.5810   14.1948 C.3     1  UNL1        0.1543
     16 C          64.7205   90.8014   13.4490 C.ar    1  UNL1        0.1415
     17 N          64.4582   91.0980   12.0022 N.ar    1  UNL1       -0.2276
     18 C          65.0897   92.4195   11.6780 C.ar    1  UNL1        0.1167
     19 C          65.1548   93.2163   10.4089 C.ar    1  UNL1        0.0238
     20 C          65.8724   94.5333   10.3863 C.ar    1  UNL1        0.0223
     21 C          66.5249   95.0534   11.6327 C.ar    1  UNL1        0.1006
     22 N          66.4598   94.2566   12.9019 N.ar    1  UNL1       -0.2252
     23 C          65.7422   92.9396   12.9245 C.ar    1  UNL1        0.1625
     24 N          65.5140   91.9396   14.0190 N.ar    1  UNL1       -0.2990
     25 C          65.9949   92.0571   15.4349 C.3     1  UNL1        0.1086
     26 C          67.3701   92.5844   15.7186 C.3     1  UNL1        0.0227
     27 C          68.8075   92.3409   16.0718 C.3     1  UNL1        0.0020
     28 C          68.3149   93.7413   15.8569 C.3     1  UNL1        0.0020
     29 C          62.1651   86.2576   12.0084 C.3     1  UNL1        0.0553
     30 C          62.3966   85.7905   10.6018 C.ar    1  UNL1       -0.0161
     31 C          63.2010   84.5505   10.3462 C.ar    1  UNL1       -0.0042
     32 C          63.4324   84.0834    8.9397 C.ar    1  UNL1       -0.0003
     33 C          62.8596   84.8563    7.7889 C.ar    1  UNL1       -0.0001
     34 C          62.0553   86.0963    8.0445 C.ar    1  UNL1        0.0035
     35 C          61.8238   86.5634    9.4510 C.ar    1  UNL1        0.0675
     36 C          61.0194   87.8035    9.7067 C.3     1  UNL1        0.4183
     37 F          60.2150   89.0434    9.9624 F       1  UNL1       -0.1659
     38 F          59.7575   86.9937    9.6638 F       1  UNL1       -0.1659
     39 F          62.2813   88.6132    9.7496 F       1  UNL1       -0.1659
@<TRIPOS>BOND
     1     7     8    1
     2     8     9    1
     3     8    10    1
     4     8     6    1
     5     6     2    1
     6     2     3    2
     7     2     4   am
     8     4     1    1
     9     1    29    1
    10    29    30    1
    11    30    31   ar
    12    31    32   ar
    13    32    33   ar
    14    33    34   ar
    15    34    35   ar
    16    35    36    1
    17    36    37    1
    18    36    38    1
    19    36    39    1
    20     1    11    1
    21    11    12    2
    22    11    13   am
    23    13    15    1
    24    15    16    1
    25    16    17   ar
    26    17    18   ar
    27    18    19   ar
    28    19    20   ar
    29    20    21   ar
    30    21    22   ar
    31    22    23   ar
    32    23    24   ar
    33    24    25    1
    34    25    26    1
    35    26    27    1
    36    27    28    1
    37    35    30   ar
    38    24    16   ar
    39    28    26    1
    40    23    18   ar
    41     4     5    1
    42    13    14    1
@<TRIPOS>MOLECULE
*****
 39 42 0 0 0
SMALL
GASTEIGER

@<TRIPOS>ATOM
      1 C          63.2558   85.7533   12.8537 C.3     1  UNL1        0.1554
      2 C          61.8173   85.8784   10.6938 C.2     1  UNL1        0.4017
      3 O          63.0577   85.7501    9.8603 O.2     1  UNL1       -0.2264
      4 N          61.9164   85.8800   12.1906 N.am    1  UNL1       -0.2637
      5 H          61.1022   85.9642   12.7377 H       1  UNL1        0.1532
      6 O          60.4778   86.0051   10.0307 O.3     1  UNL1       -0.4419
      7 C          60.1516   86.2414    7.9481 C.3     1  UNL1        0.0437
      8 C          60.1956   87.1682    9.1266 C.3     1  UNL1        0.1378
      9 C          60.2396   88.0950   10.3052 C.3     1  UNL1        0.0437
     10 C          59.9134   88.3313    8.2224 C.3     1  UNL1        0.0437
     11 C          63.8155   86.9021   13.6392 C.2     1  UNL1        0.2411
     12 O          64.6998   86.6416   14.8224 O.2     1  UNL1       -0.2733
     13 N          63.4909   88.3115   13.2414 N.am    1  UNL1       -0.2966
     14 H          62.9105   88.4825   12.4648 H       1  UNL1        0.1499
     15 C          64.0506   89.4604   14.0268 C.3     1  UNL1        0.1543
     16 C          64.5485   90.6834   13.3154 C.ar    1  UNL1        0.1415
     17 N          64.3261   91.0142   11.8693 N.ar    1  UNL1       -0.2276
     18 C          64.9963   92.3257   11.5853 C.ar    1  UNL1        0.1167
     19 C          65.1091   93.1449   10.3339 C.ar    1  UNL1        0.0238
     20 C          65.8586   94.4441   10.3530 C.ar    1  UNL1        0.0223
     21 C          66.4953   94.9240   11.6236 C.ar    1  UNL1        0.1006
     22 N          66.3825   94.1047   12.8750 N.ar    1  UNL1       -0.2252
     23 C          65.6330   92.8056   12.8558 C.ar    1  UNL1        0.1625
     24 N          65.3562   91.7906   13.9251 N.ar    1  UNL1       -0.2990
     25 C          65.8079   91.8691   15.3533 C.3     1  UNL1        0.1086
     26 C          67.1632   92.4210   15.6821 C.3     1  UNL1        0.0227
     27 C          68.5708   92.2122   16.1565 C.3     1  UNL1        0.0020
     28 C          68.1034   93.5860   15.7771 C.3     1  UNL1        0.0020
     29 C          64.0356   84.4778   12.7314 C.3     1  UNL1        0.0553
     30 C          63.3459   83.1573   12.9070 C.ar    1  UNL1       -0.0161
     31 C          63.3057   82.1756   11.7735 C.ar    1  UNL1       -0.0042
     32 C          62.6160   80.8552   11.9491 C.ar    1  UNL1       -0.0003
     33 C          61.9666   80.5165   13.2581 C.ar    1  UNL1       -0.0001
     34 C          62.0068   81.4982   14.3916 C.ar    1  UNL1        0.0035
     35 C          62.6965   82.8186   14.2160 C.ar    1  UNL1        0.0675
     36 C          62.7368   83.8003   15.3494 C.3     1  UNL1        0.4183
     37 F          62.7770   84.7820   16.4828 F       1  UNL1       -0.1659
     38 F          61.3426   84.2420   15.0163 F       1  UNL1       -0.1659
     39 F          64.1310   83.3586   15.6825 F       1  UNL1       -0.1659
@<TRIPOS>BOND
     1     7     8    1
     2     8     9    1
     3     8    10    1
     4     8     6    1
     5     6     2    1
     6     2     3    2
     7     2     4   am
     8     4     1    1
     9     1    29    1
    10    29    30    1
    11    30    31   ar
    12    31    32   ar
    13    32    33   ar
    14    33    34   ar
    15    34    35   ar
    16    35    36    1
    17    36    37    1
    18    36    38    1
    19    36    39    1
    20     1    11    1
    21    11    12    2
    22    11    13   am
    23    13    15    1
    24    15    16    1
    25    16    17   ar
    26    17    18   ar
    27    18    19   ar
    28    19    20   ar
    29    20    21   ar
    30    21    22   ar
    31    22    23   ar
    32    23    24   ar
    33    24    25    1
    34    25    26    1
    35    26    27    1
    36    27    28    1
    37    35    30   ar
    38    24    16   ar
    39    28    26    1
    40    23    18   ar
    41     4     5    1
    42    13    14    1
@<TRIPOS>MOLECULE
*****
 39 42 0 0 0
SMALL
GASTEIGER

@<TRIPOS>ATOM
      1 C          63.4293   85.6629   13.1386 C.3     1  UNL1        0.1554
      2 C          61.8523   86.5029   11.2525 C.2     1  UNL1        0.4017
      3 O          62.9732   87.3176   10.6782 O.2     1  UNL1       -0.2264
      4 N          62.0804   85.6755   12.4827 N.am    1  UNL1       -0.2637
      5 H          61.3447   85.1407   12.8597 H       1  UNL1        0.1532
      6 O          60.5034   86.5155   10.5965 O.3     1  UNL1       -0.4419
      7 C          59.9926   88.5743   10.5944 C.3     1  UNL1        0.0437
      8 C          60.1945   87.5305    9.5363 C.3     1  UNL1        0.1378
      9 C          60.3964   86.4867    8.4782 C.3     1  UNL1        0.0437
     10 C          59.8856   88.5457    8.4760 C.3     1  UNL1        0.0437
     11 C          63.9079   86.8680   13.8927 C.2     1  UNL1        0.2411
     12 O          64.7317   86.6974   15.1345 O.2     1  UNL1       -0.2733
     13 N          63.5627   88.2438   13.4048 N.am    1  UNL1       -0.2966
     14 H          63.0220   88.3558   12.5897 H       1  UNL1        0.1499
     15 C          64.0413   89.4490   14.1588 C.3     1  UNL1        0.1543
     16 C          64.5364   90.6525   13.4129 C.ar    1  UNL1        0.1415
     17 N          64.2958   90.9517   11.9628 N.ar    1  UNL1       -0.2276
     18 C          64.9697   92.2523   11.6398 C.ar    1  UNL1        0.1167
     19 C          65.0699   93.0422   10.3686 C.ar    1  UNL1        0.0238
     20 C          65.8271   94.3368   10.3478 C.ar    1  UNL1        0.0223
     21 C          66.4842   94.8416   11.5983 C.ar    1  UNL1        0.1006
     22 N          66.3840   94.0516   12.8695 N.ar    1  UNL1       -0.2252
     23 C          65.6267   92.7570   12.8902 C.ar    1  UNL1        0.1625
     24 N          65.3589   91.7683   13.9860 N.ar    1  UNL1       -0.2990
     25 C          65.8308   91.8764   15.4057 C.3     1  UNL1        0.1086
     26 C          67.1929   92.4294   15.7033 C.3     1  UNL1        0.0227
     27 C          68.6186   92.2178   16.1190 C.3     1  UNL1        0.0020
     28 C          68.1268   93.5991   15.8030 C.3     1  UNL1        0.0020
     29 C          64.2996   84.4451   13.0406 C.3     1  UNL1        0.0553
     30 C          63.6768   83.0832   12.9538 C.ar    1  UNL1       -0.0161
     31 C          63.3233   82.3389   14.2073 C.ar    1  UNL1       -0.0042
     32 C          62.7006   80.9771   14.1205 C.ar    1  UNL1       -0.0003
     33 C          62.4314   80.3595   12.7803 C.ar    1  UNL1       -0.0001
     34 C          62.7848   81.1038   11.5269 C.ar    1  UNL1        0.0035
     35 C          63.4076   82.4656   11.6137 C.ar    1  UNL1        0.0675
     36 C          63.7611   83.2099   10.3602 C.3     1  UNL1        0.4183
     37 F          64.1145   83.9543    9.1068 F       1  UNL1       -0.1659
     38 F          62.3612   83.7430   10.2820 F       1  UNL1       -0.1659
     39 F          65.1609   82.6769   10.4384 F       1  UNL1       -0.1659
@<TRIPOS>BOND
     1     7     8    1
     2     8     9    1
     3     8    10    1
     4     8     6    1
     5     6     2    1
     6     2     3    2
     7     2     4   am
     8     4     1    1
     9     1    29    1
    10    29    30    1
    11    30    31   ar
    12    31    32   ar
    13    32    33   ar
    14    33    34   ar
    15    34    35   ar
    16    35    36    1
    17    36    37    1
    18    36    38    1
    19    36    39    1
    20     1    11    1
    21    11    12    2
    22    11    13   am
    23    13    15    1
    24    15    16    1
    25    16    17   ar
    26    17    18   ar
    27    18    19   ar
    28    19    20   ar
    29    20    21   ar
    30    21    22   ar
    31    22    23   ar
    32    23    24   ar
    33    24    25    1
    34    25    26    1
    35    26    27    1
    36    27    28    1
    37    35    30   ar
    38    24    16   ar
    39    28    26    1
    40    23    18   ar
    41     4     5    1
    42    13    14    1
@<TRIPOS>MOLECULE
*****
 39 42 0 0 0
SMALL
GASTEIGER

@<TRIPOS>ATOM
      1 C          61.9029   87.4360   11.5192 C.3     1  UNL1        0.1554
      2 C          63.6662   86.9347   13.3602 C.2     1  UNL1        0.4017
      3 O          63.8421   88.4061   13.5925 O.2     1  UNL1       -0.2264
      4 N          62.6966   86.4496   12.3236 N.am    1  UNL1       -0.2637
      5 H          62.5811   85.4839   12.1711 H       1  UNL1        0.1532
      6 O          64.4599   85.9483   14.1646 O.3     1  UNL1       -0.4419
      7 C          63.2949   85.4407   15.8632 C.3     1  UNL1        0.0437
      8 C          63.8086   84.6943   14.6679 C.3     1  UNL1        0.1378
      9 C          64.3224   83.9478   13.4726 C.3     1  UNL1        0.0437
     10 C          63.1574   83.4402   15.1712 C.3     1  UNL1        0.0437
     11 C          62.0833   88.9077   11.7471 C.2     1  UNL1        0.2411
     12 O          61.2896   89.6045   12.8122 O.2     1  UNL1       -0.2733
     13 N          63.0575   89.6824   10.9100 N.am    1  UNL1       -0.2966
     14 H          63.5784   89.2250   10.2109 H       1  UNL1        0.1499
     15 C          63.2379   91.1539   11.1379 C.3     1  UNL1        0.1543
     16 C          64.1998   91.6388   12.1818 C.ar    1  UNL1        0.1415
     17 N          64.1626   91.2968   13.6418 N.ar    1  UNL1       -0.2276
     18 C          65.3075   91.9974   14.3114 C.ar    1  UNL1        0.1167
     19 C          65.7680   92.0298   15.7385 C.ar    1  UNL1        0.0238
     20 C          66.9733   92.8372   16.1195 C.ar    1  UNL1        0.0223
     21 C          67.7182   93.6123   15.0733 C.ar    1  UNL1        0.1006
     22 N          67.2576   93.5799   13.6461 N.ar    1  UNL1       -0.2252
     23 C          66.0523   92.7724   13.2652 C.ar    1  UNL1        0.1625
     24 N          65.3677   92.5508   11.9490 N.ar    1  UNL1       -0.2990
     25 C          65.7789   93.1381   10.6314 C.3     1  UNL1        0.1086
     26 C          67.1384   92.8434   10.0705 C.3     1  UNL1        0.0227
     27 C          68.3118   93.2481    9.2283 C.3     1  UNL1        0.0020
     28 C          68.3199   91.9284    9.9411 C.3     1  UNL1        0.0020
     29 C          60.9288   86.9509   10.4868 C.3     1  UNL1        0.0553
     30 C          61.4203   86.1923    9.2898 C.ar    1  UNL1       -0.0161
     31 C          62.6099   85.2868    9.4123 C.ar    1  UNL1       -0.0042
     32 C          63.1014   84.5282    8.2153 C.ar    1  UNL1       -0.0003
     33 C          62.4033   84.6750    6.8958 C.ar    1  UNL1       -0.0001
     34 C          61.2138   85.5805    6.7732 C.ar    1  UNL1        0.0035
     35 C          60.7223   86.3391    7.9703 C.ar    1  UNL1        0.0675
     36 C          59.5327   87.2446    7.8478 C.3     1  UNL1        0.4183
     37 F          58.3431   88.1501    7.7253 F       1  UNL1       -0.1659
     38 F          58.6304   86.0489    7.7713 F       1  UNL1       -0.1659
     39 F          60.4350   88.4404    7.9243 F       1  UNL1       -0.1659
@<TRIPOS>BOND
     1     7     8    1
     2     8     9    1
     3     8    10    1
     4     8     6    1
     5     6     2    1
     6     2     3    2
     7     2     4   am
     8     4     1    1
     9     1    29    1
    10    29    30    1
    11    30    31   ar
    12    31    32   ar
    13    32    33   ar
    14    33    34   ar
    15    34    35   ar
    16    35    36    1
    17    36    37    1
    18    36    38    1
    19    36    39    1
    20     1    11    1
    21    11    12    2
    22    11    13   am
    23    13    15    1
    24    15    16    1
    25    16    17   ar
    26    17    18   ar
    27    18    19   ar
    28    19    20   ar
    29    20    21   ar
    30    21    22   ar
    31    22    23   ar
    32    23    24   ar
    33    24    25    1
    34    25    26    1
    35    26    27    1
    36    27    28    1
    37    35    30   ar
    38    24    16   ar
    39    28    26    1
    40    23    18   ar
    41     4     5    1
    42    13    14    1
@<TRIPOS>MOLECULE
*****
 39 42 0 0 0
SMALL
GASTEIGER

@<TRIPOS>ATOM
      1 C          62.9964   87.1877   12.1945 C.3     1  UNL1        0.1554
      2 C          60.8785   87.0935   10.6926 C.2     1  UNL1        0.4017
      3 O          60.0987   87.8224   11.7465 O.2     1  UNL1       -0.2264
      4 N          62.3274   86.7762   10.9167 N.am    1  UNL1       -0.2637
      5 H          62.8392   86.2978   10.2250 H       1  UNL1        0.1532
      6 O          60.2095   86.6820    9.4147 O.3     1  UNL1       -0.4419
      7 C          60.6907   88.7235    9.0973 C.3     1  UNL1        0.0437
      8 C          59.8154   87.7202    8.4064 C.3     1  UNL1        0.1378
      9 C          58.9402   86.7170    7.7155 C.3     1  UNL1        0.0437
     10 C          59.4214   88.7585    7.3980 C.3     1  UNL1        0.0437
     11 C          63.1061   88.6411   12.5494 C.2     1  UNL1        0.2411
     12 O          63.1236   89.0623   13.9889 O.2     1  UNL1       -0.2733
     13 N          63.1984   89.6731   11.4648 N.am    1  UNL1       -0.2966
     14 H          63.1869   89.3966   10.5200 H       1  UNL1        0.1499
     15 C          63.3081   91.1263   11.8196 C.3     1  UNL1        0.1543
     16 C          64.3972   91.5937   12.7390 C.ar    1  UNL1        0.1415
     17 N          64.3420   91.6035   14.2379 N.ar    1  UNL1       -0.2276
     18 C          65.6435   92.1493   14.7462 C.ar    1  UNL1        0.1167
     19 C          66.1569   92.3903   16.1348 C.ar    1  UNL1        0.0238
     20 C          67.5299   92.9589   16.3385 C.ar    1  UNL1        0.0223
     21 C          68.3895   93.2863   15.1537 C.ar    1  UNL1        0.1006
     22 N          67.8761   93.0453   13.7651 N.ar    1  UNL1       -0.2252
     23 C          66.5031   92.4768   13.5613 C.ar    1  UNL1        0.1625
     24 N          65.7329   92.1334   12.3208 N.ar    1  UNL1       -0.2990
     25 C          66.2138   92.3005   10.9099 C.3     1  UNL1        0.1086
     26 C          66.6738   93.6445   10.4284 C.3     1  UNL1        0.0227
     27 C          67.4901   94.4767    9.4845 C.3     1  UNL1        0.0020
     28 C          66.6543   95.1403   10.5384 C.3     1  UNL1        0.0020
     29 C          63.5557   86.1460   13.1176 C.3     1  UNL1        0.0553
     30 C          63.1684   84.7069   12.9469 C.ar    1  UNL1       -0.0161
     31 C          63.2251   84.0709   11.5897 C.ar    1  UNL1       -0.0042
     32 C          62.8378   82.6318   11.4191 C.ar    1  UNL1       -0.0003
     33 C          62.3939   81.8289   12.6057 C.ar    1  UNL1       -0.0001
     34 C          62.3372   82.4649   13.9630 C.ar    1  UNL1        0.0035
     35 C          62.7244   83.9040   14.1335 C.ar    1  UNL1        0.0675
     36 C          62.6678   84.5401   15.4909 C.3     1  UNL1        0.4183
     37 F          62.6111   85.1762   16.8481 F       1  UNL1       -0.1659
     38 F          64.1399   84.3084   15.6609 F       1  UNL1       -0.1659
     39 F          61.1956   84.7718   15.3208 F       1  UNL1       -0.1659
@<TRIPOS>BOND
     1     7     8    1
     2     8     9    1
     3     8    10    1
     4     8     6    1
     5     6     2    1
     6     2     3    2
     7     2     4   am
     8     4     1    1
     9     1    29    1
    10    29    30    1
    11    30    31   ar
    12    31    32   ar
    13    32    33   ar
    14    33    34   ar
    15    34    35   ar
    16    35    36    1
    17    36    37    1
    18    36    38    1
    19    36    39    1
    20     1    11    1
    21    11    12    2
    22    11    13   am
    23    13    15    1
    24    15    16    1
    25    16    17   ar
    26    17    18   ar
    27    18    19   ar
    28    19    20   ar
    29    20    21   ar
    30    21    22   ar
    31    22    23   ar
    32    23    24   ar
    33    24    25    1
    34    25    26    1
    35    26    27    1
    36    27    28    1
    37    35    30   ar
    38    24    16   ar
    39    28    26    1
    40    23    18   ar
    41     4     5    1
    42    13    14    1
@<TRIPOS>MOLECULE
*****
 39 42 0 0 0
SMALL
GASTEIGER

@<TRIPOS>ATOM
      1 C          62.3920   87.3647   11.4195 C.3     1  UNL1        0.1554
      2 C          62.6265   85.2429   12.9004 C.2     1  UNL1        0.4017
      3 O          64.0627   85.5860   13.1645 O.2     1  UNL1       -0.2264
      4 N          61.7912   86.1322   12.0279 N.am    1  UNL1       -0.2637
      5 H          60.8486   85.9071   11.8545 H       1  UNL1        0.1532
      6 O          62.0258   84.0105   13.5088 O.3     1  UNL1       -0.4419
      7 C          63.0305   82.9506   15.0472 C.3     1  UNL1        0.0437
      8 C          62.8236   82.7421   13.5763 C.3     1  UNL1        0.1378
      9 C          62.6167   82.5336   12.1054 C.3     1  UNL1        0.0437
     10 C          63.6215   81.4737   13.6439 C.3     1  UNL1        0.0437
     11 C          62.6829   88.5596   12.2783 C.2     1  UNL1        0.2411
     12 O          61.7027   89.6932   12.3432 O.2     1  UNL1       -0.2733
     13 N          63.9541   88.6210   13.0722 N.am    1  UNL1       -0.2966
     14 H          64.5975   87.8770   13.0296 H       1  UNL1        0.1499
     15 C          64.2451   89.8158   13.9310 C.3     1  UNL1        0.1543
     16 C          64.7213   91.0924   13.3035 C.ar    1  UNL1        0.1415
     17 N          64.5303   91.4958   11.8715 N.ar    1  UNL1       -0.2276
     18 C          65.1630   92.8424   11.6808 C.ar    1  UNL1        0.1167
     19 C          65.2843   93.7334   10.4803 C.ar    1  UNL1        0.0238
     20 C          65.9877   95.0533   10.5940 C.ar    1  UNL1        0.0223
     21 C          66.5698   95.4822   11.9082 C.ar    1  UNL1        0.1006
     22 N          66.4485   94.5912   13.1087 N.ar    1  UNL1       -0.2252
     23 C          65.7451   93.2712   12.9950 C.ar    1  UNL1        0.1625
     24 N          65.4721   92.1897   13.9979 N.ar    1  UNL1       -0.2990
     25 C          65.8786   92.2031   15.4417 C.3     1  UNL1        0.1086
     26 C          67.2832   92.5668   15.8221 C.3     1  UNL1        0.0227
     27 C          68.3551   93.6013   15.9975 C.3     1  UNL1        0.0020
     28 C          68.6443   92.1621   16.3057 C.3     1  UNL1        0.0020
     29 C          62.7018   87.4022    9.9523 C.3     1  UNL1        0.0553
     30 C          61.7475   86.7929    8.9684 C.ar    1  UNL1       -0.0161
     31 C          62.1336   85.5523    8.2188 C.ar    1  UNL1       -0.0042
     32 C          61.1793   84.9431    7.2349 C.ar    1  UNL1       -0.0003
     33 C          59.8389   85.5743    7.0007 C.ar    1  UNL1       -0.0001
     34 C          59.4528   86.8148    7.7503 C.ar    1  UNL1        0.0035
     35 C          60.4071   87.4241    8.7342 C.ar    1  UNL1        0.0675
     36 C          60.0210   88.6647    9.4839 C.3     1  UNL1        0.4183
     37 F          59.6350   89.9052   10.2336 F       1  UNL1       -0.1659
     38 F          59.4328   87.8215   10.5761 F       1  UNL1       -0.1659
     39 F          60.6092   89.5079    8.3917 F       1  UNL1       -0.1659
@<TRIPOS>BOND
     1     7     8    1
     2     8     9    1
     3     8    10    1
     4     8     6    1
     5     6     2    1
     6     2     3    2
     7     2     4   am
     8     4     1    1
     9     1    29    1
    10    29    30    1
    11    30    31   ar
    12    31    32   ar
    13    32    33   ar
    14    33    34   ar
    15    34    35   ar
    16    35    36    1
    17    36    37    1
    18    36    38    1
    19    36    39    1
    20     1    11    1
    21    11    12    2
    22    11    13   am
    23    13    15    1
    24    15    16    1
    25    16    17   ar
    26    17    18   ar
    27    18    19   ar
    28    19    20   ar
    29    20    21   ar
    30    21    22   ar
    31    22    23   ar
    32    23    24   ar
    33    24    25    1
    34    25    26    1
    35    26    27    1
    36    27    28    1
    37    35    30   ar
    38    24    16   ar
    39    28    26    1
    40    23    18   ar
    41     4     5    1
    42    13    14    1
@<TRIPOS>MOLECULE
*****
 39 42 0 0 0
SMALL
GASTEIGER

@<TRIPOS>ATOM
      1 C          62.7326   87.4080   12.3769 C.3     1  UNL1        0.1554
      2 C          61.4494   87.1267   10.1354 C.2     1  UNL1        0.4017
      3 O          62.6547   87.6102    9.3847 O.2     1  UNL1       -0.2264
      4 N          61.4884   87.0257   11.6315 N.am    1  UNL1       -0.2637
      5 H          60.6973   86.7083   12.1242 H       1  UNL1        0.1532
      6 O          60.2052   86.7444    9.3900 O.3     1  UNL1       -0.4419
      7 C          59.4031   86.4368    7.4504 C.3     1  UNL1        0.0437
      8 C          59.6751   87.6373    8.3076 C.3     1  UNL1        0.1378
      9 C          59.9471   88.8378    9.1647 C.3     1  UNL1        0.0437
     10 C          59.1450   88.5302    7.2250 C.3     1  UNL1        0.0437
     11 C          62.9848   88.8443   12.7286 C.2     1  UNL1        0.2411
     12 O          63.0104   89.2710   14.1663 O.2     1  UNL1       -0.2733
     13 N          63.2113   89.8538   11.6425 N.am    1  UNL1       -0.2966
     14 H          63.1944   89.5737   10.6988 H       1  UNL1        0.1499
     15 C          63.4634   91.2900   11.9941 C.3     1  UNL1        0.1543
     16 C          64.6276   91.6553   12.8666 C.ar    1  UNL1        0.1415
     17 N          64.6305   91.6845   14.3663 N.ar    1  UNL1       -0.2276
     18 C          65.9979   92.1028   14.8192 C.ar    1  UNL1        0.1167
     19 C          66.5850   92.3046   16.1847 C.ar    1  UNL1        0.0238
     20 C          68.0143   92.7356   16.3303 C.ar    1  UNL1        0.0223
     21 C          68.8565   92.9649   15.1105 C.ar    1  UNL1        0.1006
     22 N          68.2695   92.7631   13.7450 N.ar    1  UNL1       -0.2252
     23 C          66.8402   92.3321   13.5993 C.ar    1  UNL1        0.1625
     24 N          65.9932   92.0555   12.3926 N.ar    1  UNL1       -0.2990
     25 C          66.4346   92.1607   10.9629 C.3     1  UNL1        0.1086
     26 C          66.8242   93.4928   10.3942 C.3     1  UNL1        0.0227
     27 C          66.7673   94.9911   10.4386 C.3     1  UNL1        0.0020
     28 C          67.5559   94.3021    9.3648 C.3     1  UNL1        0.0020
     29 C          63.7248   86.3542   12.7705 C.3     1  UNL1        0.0553
     30 C          63.2488   85.0547   13.3492 C.ar    1  UNL1       -0.0161
     31 C          62.9172   84.9604   14.8090 C.ar    1  UNL1       -0.0042
     32 C          62.4412   83.6610   15.3876 C.ar    1  UNL1       -0.0003
     33 C          62.2968   82.4557   14.5064 C.ar    1  UNL1       -0.0001
     34 C          62.6285   82.5500   13.0466 C.ar    1  UNL1        0.0035
     35 C          63.1044   83.8494   12.4680 C.ar    1  UNL1        0.0675
     36 C          63.4361   83.9437   11.0081 C.3     1  UNL1        0.4183
     37 F          63.7677   84.0379    9.5483 F       1  UNL1       -0.1659
     38 F          62.0079   84.2887   10.7060 F       1  UNL1       -0.1659
     39 F          64.8642   83.5987   11.3102 F       1  UNL1       -0.1659
@<TRIPOS>BOND
     1     7     8    1
     2     8     9    1
     3     8    10    1
     4     8     6    1
     5     6     2    1
     6     2     3    2
     7     2     4   am
     8     4     1    1
     9     1    29    1
    10    29    30    1
    11    30    31   ar
    12    31    32   ar
    13    32    33   ar
    14    33    34   ar
    15    34    35   ar
    16    35    36    1
    17    36    37    1
    18    36    38    1
    19    36    39    1
    20     1    11    1
    21    11    12    2
    22    11    13   am
    23    13    15    1
    24    15    16    1
    25    16    17   ar
    26    17    18   ar
    27    18    19   ar
    28    19    20   ar
    29    20    21   ar
    30    21    22   ar
    31    22    23   ar
    32    23    24   ar
    33    24    25    1
    34    25    26    1
    35    26    27    1
    36    27    28    1
    37    35    30   ar
    38    24    16   ar
    39    28    26    1
    40    23    18   ar
    41     4     5    1
    42    13    14    1
@<TRIPOS>MOLECULE
*****
 39 42 0 0 0
SMALL
GASTEIGER

@<TRIPOS>ATOM
      1 C          63.3687   85.5196   12.7816 C.3     1  UNL1        0.1554
      2 C          62.0963   85.3270   10.5246 C.2     1  UNL1        0.4017
      3 O          63.3615   84.8882    9.8488 O.2     1  UNL1       -0.2264
      4 N          62.0999   85.6427   11.9911 N.am    1  UNL1       -0.2637
      5 H          61.2695   85.9307   12.4347 H       1  UNL1        0.1532
      6 O          60.8275   85.4502    9.7341 O.3     1  UNL1       -0.4419
      7 C          60.9802   86.0373    7.7014 C.3     1  UNL1        0.0437
      8 C          60.5397   86.7077    8.9689 C.3     1  UNL1        0.1378
      9 C          60.0993   87.3782   10.2363 C.3     1  UNL1        0.0437
     10 C          60.2520   87.9654    8.2035 C.3     1  UNL1        0.0437
     11 C          63.8574   86.6773   13.6007 C.2     1  UNL1        0.2411
     12 O          64.7458   86.4362   14.7850 O.2     1  UNL1       -0.2733
     13 N          63.4578   88.0762   13.2353 N.am    1  UNL1       -0.2966
     14 H          62.8747   88.2344   12.4580 H       1  UNL1        0.1499
     15 C          63.9465   89.2339   14.0543 C.3     1  UNL1        0.1543
     16 C          64.4410   90.4769   13.3757 C.ar    1  UNL1        0.1415
     17 N          65.4067   91.4705   13.9504 N.ar    1  UNL1       -0.2276
     18 C          65.6191   92.5522   12.9332 C.ar    1  UNL1        0.1167
     19 C          66.4646   93.7912   12.9473 C.ar    1  UNL1        0.0238
     20 C          66.4756   94.7051   11.7580 C.ar    1  UNL1        0.0223
     21 C          65.6411   94.3802   10.5546 C.ar    1  UNL1        0.1006
     22 N          64.7957   93.1413   10.5406 N.ar    1  UNL1       -0.2252
     23 C          64.7847   92.2273   11.7299 C.ar    1  UNL1        0.1625
     24 N          64.0565   90.9447   12.0034 N.ar    1  UNL1       -0.2990
     25 C          63.1101   90.2516   11.0686 C.3     1  UNL1        0.1086
     26 C          61.6314   90.3221   11.3098 C.3     1  UNL1        0.0227
     27 C          60.2611   90.7396   10.8650 C.3     1  UNL1        0.0020
     28 C          60.4404   90.0269   12.1726 C.3     1  UNL1        0.0020
     29 C          64.1488   84.2387   12.7531 C.3     1  UNL1        0.0553
     30 C          63.4449   82.9275   12.9416 C.ar    1  UNL1       -0.0161
     31 C          63.4605   81.9036   11.8456 C.ar    1  UNL1       -0.0042
     32 C          62.7567   80.5925   12.0341 C.ar    1  UNL1       -0.0003
     33 C          62.0372   80.3053   13.3186 C.ar    1  UNL1       -0.0001
     34 C          62.0217   81.3292   14.4146 C.ar    1  UNL1        0.0035
     35 C          62.7255   82.6403   14.2261 C.ar    1  UNL1        0.0675
     36 C          62.7099   83.6643   15.3221 C.3     1  UNL1        0.4183
     37 F          62.6944   84.6883   16.4181 F       1  UNL1       -0.1659
     38 F          61.3194   84.0653   14.9278 F       1  UNL1       -0.1659
     39 F          64.1005   83.2634   15.7165 F       1  UNL1       -0.1659
@<TRIPOS>BOND
     1     7     8    1
     2     8     9    1
     3     8    10    1
     4     8     6    1
     5     6     2    1
     6     2     3    2
     7     2     4   am
     8     4     1    1
     9     1    29    1
    10    29    30    1
    11    30    31   ar
    12    31    32   ar
    13    32    33   ar
    14    33    34   ar
    15    34    35   ar
    16    35    36    1
    17    36    37    1
    18    36    38    1
    19    36    39    1
    20     1    11    1
    21    11    12    2
    22    11    13   am
    23    13    15    1
    24    15    16    1
    25    16    17   ar
    26    17    18   ar
    27    18    19   ar
    28    19    20   ar
    29    20    21   ar
    30    21    22   ar
    31    22    23   ar
    32    23    24   ar
    33    24    25    1
    34    25    26    1
    35    26    27    1
    36    27    28    1
    37    35    30   ar
    38    24    16   ar
    39    28    26    1
    40    23    18   ar
    41     4     5    1
    42    13    14    1
@<TRIPOS>MOLECULE
*****
 39 42 0 0 0
SMALL
GASTEIGER

@<TRIPOS>ATOM
      1 C          62.6555   86.2199   12.2407 C.3     1  UNL1        0.1554
      2 C          63.3793   83.7758   12.7431 C.2     1  UNL1        0.4017
      3 O          62.6194   83.8164   14.0357 O.2     1  UNL1       -0.2264
      4 N          63.3974   84.9776   11.8456 N.am    1  UNL1       -0.2637
      5 H          63.8961   84.9510   10.9972 H       1  UNL1        0.1532
      6 O          64.1212   82.5335   12.3480 O.3     1  UNL1       -0.4419
      7 C          63.1514   81.4884   10.7773 C.3     1  UNL1        0.0437
      8 C          63.3912   81.2280   12.2349 C.3     1  UNL1        0.1378
      9 C          63.6310   80.9677   13.6925 C.3     1  UNL1        0.0437
     10 C          62.6611   79.9225   12.1218 C.3     1  UNL1        0.0437
     11 C          63.3251   87.2527   13.0982 C.2     1  UNL1        0.2411
     12 O          63.9971   86.8455   14.3759 O.2     1  UNL1       -0.2733
     13 N          63.3227   88.6926   12.6778 N.am    1  UNL1       -0.2966
     14 H          62.8816   88.9598   11.8392 H       1  UNL1        0.1499
     15 C          63.9923   89.7253   13.5352 C.3     1  UNL1        0.1543
     16 C          64.5265   90.9826   12.9157 C.ar    1  UNL1        0.1415
     17 N          64.3931   91.3818   11.4760 N.ar    1  UNL1       -0.2276
     18 C          65.0720   92.7074   11.2976 C.ar    1  UNL1        0.1167
     19 C          65.2581   93.5862   10.0964 C.ar    1  UNL1        0.0238
     20 C          65.9973   94.8851   10.2246 C.ar    1  UNL1        0.0223
     21 C          66.5503   95.3052   11.5542 C.ar    1  UNL1        0.1006
     22 N          66.3642   94.4264   12.7554 N.ar    1  UNL1       -0.2252
     23 C          65.6251   93.1275   12.6271 C.ar    1  UNL1        0.1625
     24 N          65.2879   92.0615   13.6272 N.ar    1  UNL1       -0.2990
     25 C          65.6488   92.0726   15.0831 C.3     1  UNL1        0.1086
     26 C          67.0286   92.4765   15.5107 C.3     1  UNL1        0.0227
     27 C          67.9726   93.5148   16.0403 C.3     1  UNL1        0.0020
     28 C          68.4745   92.1377   15.7219 C.3     1  UNL1        0.0020
     29 C          61.2440   86.4296   11.7785 C.3     1  UNL1        0.0553
     30 C          60.8848   87.6605   11.0000 C.ar    1  UNL1       -0.0161
     31 C          60.3560   88.8704   11.7118 C.ar    1  UNL1       -0.0042
     32 C          59.9968   90.1012   10.9334 C.ar    1  UNL1       -0.0003
     33 C          60.1664   90.1222    9.4431 C.ar    1  UNL1       -0.0001
     34 C          60.6951   88.9123    8.7313 C.ar    1  UNL1        0.0035
     35 C          61.0543   87.6815    9.5098 C.ar    1  UNL1        0.0675
     36 C          61.5831   86.4716    8.7980 C.3     1  UNL1        0.4183
     37 F          62.1118   85.2617    8.0863 F       1  UNL1       -0.1659
     38 F          60.1830   85.9626    8.6232 F       1  UNL1       -0.1659
     39 F          62.9832   86.9806    8.9728 F       1  UNL1       -0.1659
@<TRIPOS>BOND
     1     7     8    1
     2     8     9    1
     3     8    10    1
     4     8     6    1
     5     6     2    1
     6     2     3    2
     7     2     4   am
     8     4     1    1
     9     1    29    1
    10    29    30    1
    11    30    31   ar
    12    31    32   ar
    13    32    33   ar
    14    33    34   ar
    15    34    35   ar
    16    35    36    1
    17    36    37    1
    18    36    38    1
    19    36    39    1
    20     1    11    1
    21    11    12    2
    22    11    13   am
    23    13    15    1
    24    15    16    1
    25    16    17   ar
    26    17    18   ar
    27    18    19   ar
    28    19    20   ar
    29    20    21   ar
    30    21    22   ar
    31    22    23   ar
    32    23    24   ar
    33    24    25    1
    34    25    26    1
    35    26    27    1
    36    27    28    1
    37    35    30   ar
    38    24    16   ar
    39    28    26    1
    40    23    18   ar
    41     4     5    1
    42    13    14    1
