@<TRIPOS>MOLECULE
*****
 41 46 0 0 0
SMALL
GASTEIGER

@<TRIPOS>ATOM
      1 C          59.1751   93.9937   -2.1919 C.ar    1  UNL1        0.0273
      2 C          60.2775   94.4702   -3.0905 C.ar    1  UNL1        0.0052
      3 C          60.0259   94.6433   -4.5591 C.ar    1  UNL1        0.0351
      4 C          58.6719   94.3398   -5.1290 C.ar    1  UNL1        0.0850
      5 C          57.5696   93.8633   -4.2303 C.ar    1  UNL1        0.0488
      6 C          57.8212   93.6902   -2.7618 C.ar    1  UNL1        0.1416
      7 F          56.7188   93.2136   -1.8630 F       1  UNL1       -0.2041
      8 N          58.4204   94.5129   -6.5976 N.ar    1  UNL1       -0.2421
      9 C          59.5227   94.9895   -7.4963 C.ar    1  UNL1        0.1193
     10 C          60.8767   95.2930   -6.9264 C.ar    1  UNL1        0.1174
     11 N          62.1477   95.7748   -7.5608 N.ar    1  UNL1       -0.2294
     12 C          63.1848   95.8994   -6.4843 C.ar    1  UNL1        0.1208
     13 C          64.6030   96.3498   -6.6741 C.3     1  UNL1        0.0718
     14 N          62.5547   95.4947   -5.1846 N.ar    1  UNL1       -0.3138
     15 C          61.1283   95.1199   -5.4579 C.ar    1  UNL1        0.0816
     16 C          63.2322   95.4692   -3.8465 C.3     1  UNL1        0.1224
     17 C          63.5327   96.7541   -3.1334 C.3     1  UNL1        0.0469
     18 C          64.2102   96.7287   -1.7954 C.3     1  UNL1        0.0956
     19 N          64.5871   95.4182   -1.1704 N.am    1  UNL1       -0.2746
     20 C          65.2646   95.3927    0.1676 C.2     1  UNL1        0.2556
     21 O          65.6416   94.0822    0.7926 O.2     1  UNL1       -0.2722
     22 C          64.2866   94.1332   -1.8835 C.3     1  UNL1        0.1306
     23 C          63.6091   94.1587   -3.2216 C.3     1  UNL1        0.2011
     24 F          63.3086   92.8737   -3.9346 F       1  UNL1       -0.2334
     25 C          65.5652   96.6778    0.8807 C.3     1  UNL1        0.2232
     26 O          65.2822   96.8051    2.3483 O.3     1  UNL1       -0.3737
     27 H          64.3251   96.7561    2.4984 H       1  UNL1        0.2110
     28 C          58.9129   96.3381   -0.3386 C.3     1  UNL1        0.0311
     29 C          59.2955   94.9928    0.2034 C.ar    1  UNL1       -0.0187
     30 C          59.5471   94.8197    1.6720 C.ar    1  UNL1        0.0334
     31 C          59.9297   93.4744    2.2140 C.ar    1  UNL1        0.1484
     32 C          60.0609   92.3022    1.2873 C.ar    1  UNL1        0.0376
     33 C          59.8093   92.4753   -0.1813 C.ar    1  UNL1        0.0029
     34 C          59.4267   93.8206   -0.7232 C.ar    1  UNL1       -0.0016
     35 O          60.1813   93.3014    3.6825 O.3     1  UNL1       -0.4223
     36 C          59.4797   92.2136    4.4405 C.ar    1  UNL1        0.3246
     37 N          60.2771   91.1716    5.1674 N.ar    1  UNL1       -0.1924
     38 C          59.5754   90.0838    5.9254 C.ar    1  UNL1        0.1053
     39 C          58.0765   90.0381    5.9565 C.ar    1  UNL1        0.0416
     40 C          57.2791   91.0801    5.2296 C.ar    1  UNL1        0.1053
     41 N          57.9807   92.1679    4.4716 N.ar    1  UNL1       -0.1924
@<TRIPOS>BOND
     1    28    29    1
     2    29    30   ar
     3    30    31   ar
     4    31    35    1
     5    35    36    1
     6    36    37   ar
     7    37    38   ar
     8    38    39   ar
     9    39    40   ar
    10    40    41   ar
    11    31    32   ar
    12    32    33   ar
    13    33    34   ar
    14    34     1    1
    15     1     2   ar
    16     2     3   ar
    17     3     4   ar
    18     4     5   ar
    19     5     6   ar
    20     6     7    1
    21     4     8   ar
    22     8     9   ar
    23     9    10   ar
    24    10    11   ar
    25    11    12   ar
    26    12    13    1
    27    12    14   ar
    28    16    14    1
    29    16    17    1
    30    17    18    1
    31    18    19    1
    32    19    20   am
    33    20    21    2
    34    20    25    1
    35    25    26    1
    36    19    22    1
    37    22    23    1
    38    23    24    1
    39    14    15   ar
    40    34    29   ar
    41     6     1   ar
    42    15    10   ar
    43    41    36   ar
    44    15     3   ar
    45    23    16    1
    46    26    27    1
@<TRIPOS>MOLECULE
*****
 41 46 0 0 0
SMALL
GASTEIGER

@<TRIPOS>ATOM
      1 C          63.1516   94.9654    0.0291 C.ar    1  UNL1        0.0273
      2 C          62.9464   95.2388   -1.4314 C.ar    1  UNL1        0.0052
      3 C          64.0754   95.7766   -2.2596 C.ar    1  UNL1        0.0351
      4 C          65.4098   96.0408   -1.6274 C.ar    1  UNL1        0.0850
      5 C          65.6150   95.7674   -0.1669 C.ar    1  UNL1        0.0488
      6 C          64.4860   95.2297    0.6613 C.ar    1  UNL1        0.1416
      7 F          64.6912   94.9562    2.1219 F       1  UNL1       -0.2041
      8 N          66.5389   96.5786   -2.4557 N.ar    1  UNL1       -0.2421
      9 C          66.3336   96.8520   -3.9162 C.ar    1  UNL1        0.1193
     10 C          64.9993   96.5878   -4.5484 C.ar    1  UNL1        0.1174
     11 N          64.5028   96.7590   -5.9535 N.ar    1  UNL1       -0.2294
     12 C          63.0669   96.3270   -5.9936 C.ar    1  UNL1        0.1208
     13 C          62.1780   96.3323   -7.2019 C.3     1  UNL1        0.0718
     14 N          62.6759   95.8889   -4.6133 N.ar    1  UNL1       -0.3138
     15 C          63.8702   96.0500   -3.7202 C.ar    1  UNL1        0.0816
     16 C          61.3275   95.3791   -4.1989 C.3     1  UNL1        0.1224
     17 C          60.1481   96.3058   -4.1817 C.3     1  UNL1        0.0469
     18 C          58.7996   95.7960   -3.7674 C.3     1  UNL1        0.0956
     19 N          58.6305   94.3594   -3.3702 N.am    1  UNL1       -0.2746
     20 C          57.2821   93.8496   -2.9558 C.2     1  UNL1        0.2556
     21 O          57.1129   92.4131   -2.5586 O.2     1  UNL1       -0.2722
     22 C          59.8099   93.4327   -3.3874 C.3     1  UNL1        0.1306
     23 C          61.1584   93.9425   -3.8017 C.3     1  UNL1        0.2011
     24 F          62.3377   93.0158   -3.8189 F       1  UNL1       -0.2334
     25 C          56.1027   94.7764   -2.9386 C.3     1  UNL1        0.2232
     26 O          55.2965   94.9412   -1.6845 O.3     1  UNL1       -0.3737
     27 H          54.8497   94.1060   -1.4752 H       1  UNL1        0.2110
     28 C          61.4831   96.8315    1.6824 C.3     1  UNL1        0.0311
     29 C          61.1883   95.3607    1.6841 C.ar    1  UNL1       -0.0187
     30 C          60.0592   94.8230    2.5124 C.ar    1  UNL1        0.0334
     31 C          59.7644   93.3522    2.5140 C.ar    1  UNL1        0.1484
     32 C          60.5987   92.4192    1.6873 C.ar    1  UNL1        0.0376
     33 C          61.7278   92.9569    0.8590 C.ar    1  UNL1        0.0029
     34 C          62.0225   94.4276    0.8574 C.ar    1  UNL1       -0.0016
     35 O          58.6354   92.8145    3.3423 O.3     1  UNL1       -0.4223
     36 C          58.9059   91.7903    4.4043 C.ar    1  UNL1        0.3246
     37 N          57.7643   91.1509    5.1377 N.ar    1  UNL1       -0.1924
     38 C          58.0348   90.1266    6.1997 C.ar    1  UNL1        0.1053
     39 C          59.4469   89.7419    6.5283 C.ar    1  UNL1        0.0416
     40 C          60.5885   90.3814    5.7949 C.ar    1  UNL1        0.1053
     41 N          60.3180   91.4056    4.7329 N.ar    1  UNL1       -0.1924
@<TRIPOS>BOND
     1    28    29    1
     2    29    30   ar
     3    30    31   ar
     4    31    35    1
     5    35    36    1
     6    36    37   ar
     7    37    38   ar
     8    38    39   ar
     9    39    40   ar
    10    40    41   ar
    11    31    32   ar
    12    32    33   ar
    13    33    34   ar
    14    34     1    1
    15     1     2   ar
    16     2     3   ar
    17     3     4   ar
    18     4     5   ar
    19     5     6   ar
    20     6     7    1
    21     4     8   ar
    22     8     9   ar
    23     9    10   ar
    24    10    11   ar
    25    11    12   ar
    26    12    13    1
    27    12    14   ar
    28    16    14    1
    29    16    17    1
    30    17    18    1
    31    18    19    1
    32    19    20   am
    33    20    21    2
    34    20    25    1
    35    25    26    1
    36    19    22    1
    37    22    23    1
    38    23    24    1
    39    14    15   ar
    40    34    29   ar
    41     6     1   ar
    42    15    10   ar
    43    41    36   ar
    44    15     3   ar
    45    23    16    1
    46    26    27    1
