@<TRIPOS>MOLECULE
*****
 27 30 0 0 0
SMALL
GASTEIGER

@<TRIPOS>ATOM
      1 C          62.1755   90.0419   10.5041 C.3     1  UNL1        0.0282
      2 C          63.2222   90.7952   11.2704 C.3     1  UNL1        0.1255
      3 C          64.1026   91.7834   10.5645 C.3     1  UNL1        0.1229
      4 N          65.1492   92.5366   11.3306 N.am    1  UNL1       -0.2486
      5 C          65.3155   92.3017   12.8028 C.2     1  UNL1        0.2703
      6 O          66.3622   93.0551   13.5690 O.2     1  UNL1       -0.2679
      7 C          64.4351   91.3135   13.5087 C.ar    1  UNL1        0.1329
      8 C          64.3664   90.8747   14.9414 C.ar    1  UNL1        0.0435
      9 C          63.2773   89.8502   15.0607 C.ar    1  UNL1        0.1239
     10 N          62.6729   89.6558   13.7017 N.ar    1  UNL1       -0.1698
     11 N          63.3884   90.5602   12.7425 N.ar    1  UNL1       -0.2469
     12 C          66.0296   93.5249   10.6247 C.ar    1  UNL1        0.1005
     13 C          65.6268   94.9678   10.5485 C.ar    1  UNL1        0.0204
     14 C          66.5072   95.9560    9.8426 C.ar    1  UNL1        0.0221
     15 C          67.7904   95.5014    9.2129 C.ar    1  UNL1        0.1014
     16 N          68.1933   94.0585    9.2891 N.ar    1  UNL1       -0.2154
     17 C          67.3129   93.0703    9.9950 C.ar    1  UNL1        0.2360
     18 F          67.7157   91.6273   10.0712 F       1  UNL1       -0.1818
     19 C          62.8650   89.1440   16.3182 C.3     1  UNL1        0.2543
     20 O          63.6338   87.9465   16.7924 O.3     1  UNL1       -0.4535
     21 C          63.5286   86.6463   16.0519 C.ar    1  UNL1        0.2253
     22 C          64.4688   86.3487   14.9217 C.ar    1  UNL1        0.0586
     23 C          64.3636   85.0485   14.1811 C.ar    1  UNL1        0.0178
     24 C          63.3182   84.0458   14.5709 C.ar    1  UNL1        0.0770
     25 CL         63.2131   82.7456   13.8303 Cl      1  UNL1       -0.0806
     26 C          62.3780   84.3434   15.7011 C.ar    1  UNL1        0.1134
     27 N          62.4832   85.6436   16.4416 N.ar    1  UNL1       -0.2092
@<TRIPOS>BOND
     1     2     1    1
     2     2     3    1
     3     3     4    1
     4     4    12    1
     5    12    13   ar
     6    13    14   ar
     7    14    15   ar
     8    15    16   ar
     9    16    17   ar
    10    17    18    1
    11     4     5   am
    12     5     6    2
    13     5     7    1
    14     7     8   ar
    15     8     9   ar
    16     9    19    1
    17    19    20    1
    18    20    21    1
    19    21    22   ar
    20    22    23   ar
    21    23    24   ar
    22    24    25    1
    23    24    26   ar
    24    26    27   ar
    25     9    10   ar
    26    10    11   ar
    27    11     2    1
    28    17    12   ar
    29    11     7   ar
    30    27    21   ar
@<TRIPOS>MOLECULE
*****
 27 30 0 0 0
SMALL
GASTEIGER

@<TRIPOS>ATOM
      1 C          61.8284   87.2496   10.3705 C.3     1  UNL1        0.0282
      2 C          62.4092   86.4987   11.5319 C.3     1  UNL1        0.1255
      3 C          62.2390   85.0112   11.6240 C.3     1  UNL1        0.1229
      4 N          62.8199   84.2603   12.7852 N.am    1  UNL1       -0.2486
      5 C          63.5710   84.9969   13.8546 C.2     1  UNL1        0.2703
      6 O          64.1518   84.2459   15.0160 O.2     1  UNL1       -0.2679
      7 C          63.7412   86.4843   13.7625 C.ar    1  UNL1        0.1329
      8 C          64.4266   87.4734   14.6580 C.ar    1  UNL1        0.0435
      9 C          64.2693   88.8357   14.0501 C.ar    1  UNL1        0.1239
     10 N          63.4867   88.6884   12.7789 N.ar    1  UNL1       -0.1698
     11 N          63.1603   87.2352   12.6012 N.ar    1  UNL1       -0.2469
     12 C          62.6497   82.7728   12.8773 C.ar    1  UNL1        0.1005
     13 C          61.9254   82.1716   14.0452 C.ar    1  UNL1        0.0204
     14 C          61.7552   80.6842   14.1373 C.ar    1  UNL1        0.0221
     15 C          62.3092   79.7979   13.0615 C.ar    1  UNL1        0.1014
     16 N          63.0335   80.3990   11.8936 N.ar    1  UNL1       -0.2154
     17 C          63.2037   81.8865   11.8015 C.ar    1  UNL1        0.2360
     18 F          63.9280   82.4877   10.6336 F       1  UNL1       -0.1818
     19 C          64.8012   90.1197   14.6143 C.3     1  UNL1        0.2543
     20 O          64.2310   91.4311   14.1613 O.3     1  UNL1       -0.4535
     21 C          64.8683   92.1731   13.0240 C.ar    1  UNL1        0.2253
     22 C          64.5573   91.7868   11.6084 C.ar    1  UNL1        0.0586
     23 C          65.1946   92.5288   10.4712 C.ar    1  UNL1        0.0178
     24 C          66.1429   93.6572   10.7496 C.ar    1  UNL1        0.0770
     25 CL         66.7802   94.3992    9.6123 Cl      1  UNL1       -0.0806
     26 C          66.4539   94.0435   12.1652 C.ar    1  UNL1        0.1134
     27 N          65.8167   93.3015   13.3024 N.ar    1  UNL1       -0.2092
@<TRIPOS>BOND
     1     2     1    1
     2     2     3    1
     3     3     4    1
     4     4    12    1
     5    12    13   ar
     6    13    14   ar
     7    14    15   ar
     8    15    16   ar
     9    16    17   ar
    10    17    18    1
    11     4     5   am
    12     5     6    2
    13     5     7    1
    14     7     8   ar
    15     8     9   ar
    16     9    19    1
    17    19    20    1
    18    20    21    1
    19    21    22   ar
    20    22    23   ar
    21    23    24   ar
    22    24    25    1
    23    24    26   ar
    24    26    27   ar
    25     9    10   ar
    26    10    11   ar
    27    11     2    1
    28    17    12   ar
    29    11     7   ar
    30    27    21   ar
@<TRIPOS>MOLECULE
*****
 27 30 0 0 0
SMALL
GASTEIGER

@<TRIPOS>ATOM
      1 C          61.7072   88.0494   10.1657 C.3     1  UNL1        0.0282
      2 C          62.4449   87.5510   11.3730 C.3     1  UNL1        0.1255
      3 C          62.4715   86.0836   11.6828 C.3     1  UNL1        0.1229
      4 N          63.2091   85.5851   12.8899 N.am    1  UNL1       -0.2486
      5 C          63.9203   86.5541   13.7874 C.2     1  UNL1        0.2703
      6 O          64.6580   86.0555   14.9946 O.2     1  UNL1       -0.2679
      7 C          63.8937   88.0215   13.4776 C.ar    1  UNL1        0.1329
      8 C          64.4976   89.2052   14.1734 C.ar    1  UNL1        0.0435
      9 C          64.1331   90.4353   13.3961 C.ar    1  UNL1        0.1239
     10 N          63.3040   90.0118   12.2200 N.ar    1  UNL1       -0.1698
     11 N          63.1561   88.5199   12.2704 N.ar    1  UNL1       -0.2469
     12 C          63.2356   84.1176   13.1997 C.ar    1  UNL1        0.1005
     13 C          64.0308   83.1832   12.3369 C.ar    1  UNL1        0.0204
     14 C          64.0574   81.7158   12.6466 C.ar    1  UNL1        0.0221
     15 C          63.2887   81.1828   13.8192 C.ar    1  UNL1        0.1014
     16 N          62.4935   82.1172   14.6821 N.ar    1  UNL1       -0.2154
     17 C          62.4670   83.5846   14.3723 C.ar    1  UNL1        0.2360
     18 F          61.6718   84.5191   15.2351 F       1  UNL1       -0.1818
     19 C          64.5284   91.8419   13.7354 C.3     1  UNL1        0.2543
     20 O          65.9478   92.2886   13.5460 O.3     1  UNL1       -0.4535
     21 C          66.3240   93.1013   12.3426 C.ar    1  UNL1        0.2253
     22 C          66.9367   92.4326   11.1478 C.ar    1  UNL1        0.0586
     23 C          67.3129   93.2452    9.9444 C.ar    1  UNL1        0.0178
     24 C          67.0765   94.7265    9.9358 C.ar    1  UNL1        0.0770
     25 CL         67.4527   95.5391    8.7324 Cl      1  UNL1       -0.0806
     26 C          66.4638   95.3951   11.1306 C.ar    1  UNL1        0.1134
     27 N          66.0875   94.5825   12.3340 N.ar    1  UNL1       -0.2092
@<TRIPOS>BOND
     1     2     1    1
     2     2     3    1
     3     3     4    1
     4     4    12    1
     5    12    13   ar
     6    13    14   ar
     7    14    15   ar
     8    15    16   ar
     9    16    17   ar
    10    17    18    1
    11     4     5   am
    12     5     6    2
    13     5     7    1
    14     7     8   ar
    15     8     9   ar
    16     9    19    1
    17    19    20    1
    18    20    21    1
    19    21    22   ar
    20    22    23   ar
    21    23    24   ar
    22    24    25    1
    23    24    26   ar
    24    26    27   ar
    25     9    10   ar
    26    10    11   ar
    27    11     2    1
    28    17    12   ar
    29    11     7   ar
    30    27    21   ar
@<TRIPOS>MOLECULE
*****
 27 30 0 0 0
SMALL
GASTEIGER

@<TRIPOS>ATOM
      1 C          64.0761   85.8933   14.3496 C.3     1  UNL1        0.0282
      2 C          63.5954   86.8768   13.3240 C.3     1  UNL1        0.1255
      3 C          62.8171   86.3993   12.1340 C.3     1  UNL1        0.1229
      4 N          62.3364   87.3827   11.1085 N.am    1  UNL1       -0.2486
      5 C          62.6340   88.8437   11.2729 C.2     1  UNL1        0.2703
      6 O          62.1533   89.8271   10.2473 O.2     1  UNL1       -0.2679
      7 C          63.4123   89.3212   12.4630 C.ar    1  UNL1        0.1329
      8 C          63.8545   90.6895   12.8898 C.ar    1  UNL1        0.0435
      9 C          64.6085   90.5517   14.1792 C.ar    1  UNL1        0.1239
     10 N          64.6323   89.0982   14.5492 N.ar    1  UNL1       -0.1698
     11 N          63.8930   88.3377   13.4885 N.ar    1  UNL1       -0.2469
     12 C          61.5581   86.9052    9.9183 C.ar    1  UNL1        0.1005
     13 C          62.2326   86.0795    8.8632 C.ar    1  UNL1        0.0204
     14 C          61.4543   85.6020    7.6731 C.ar    1  UNL1        0.0221
     15 C          60.0015   85.9502    7.5382 C.ar    1  UNL1        0.1014
     16 N          59.3271   86.7758    8.5934 N.ar    1  UNL1       -0.2154
     17 C          60.1053   87.2533    9.7834 C.ar    1  UNL1        0.2360
     18 F          59.4309   88.0790   10.8386 F       1  UNL1       -0.1818
     19 C          65.2297   91.6708   14.9612 C.3     1  UNL1        0.2543
     20 O          65.7452   92.8868   14.2502 O.3     1  UNL1       -0.4535
     21 C          66.4372   92.7448   12.9269 C.ar    1  UNL1        0.2253
     22 C          65.8406   93.3650   11.6983 C.ar    1  UNL1        0.0586
     23 C          66.5325   93.2230   10.3750 C.ar    1  UNL1        0.0178
     24 C          67.8210   92.4609   10.2803 C.ar    1  UNL1        0.0770
     25 CL         68.5129   92.3189    8.9570 Cl      1  UNL1       -0.0806
     26 C          68.4175   91.8407   11.5089 C.ar    1  UNL1        0.1134
     27 N          67.7256   91.9827   12.8322 N.ar    1  UNL1       -0.2092
@<TRIPOS>BOND
     1     2     1    1
     2     2     3    1
     3     3     4    1
     4     4    12    1
     5    12    13   ar
     6    13    14   ar
     7    14    15   ar
     8    15    16   ar
     9    16    17   ar
    10    17    18    1
    11     4     5   am
    12     5     6    2
    13     5     7    1
    14     7     8   ar
    15     8     9   ar
    16     9    19    1
    17    19    20    1
    18    20    21    1
    19    21    22   ar
    20    22    23   ar
    21    23    24   ar
    22    24    25    1
    23    24    26   ar
    24    26    27   ar
    25     9    10   ar
    26    10    11   ar
    27    11     2    1
    28    17    12   ar
    29    11     7   ar
    30    27    21   ar
@<TRIPOS>MOLECULE
*****
 27 30 0 0 0
SMALL
GASTEIGER

@<TRIPOS>ATOM
      1 C          60.6985   86.9097    9.2122 C.3     1  UNL1        0.0282
      2 C          61.5436   86.6961   10.4329 C.3     1  UNL1        0.1255
      3 C          61.7262   85.3139   10.9862 C.3     1  UNL1        0.1229
      4 N          62.5713   85.1003   12.2068 N.am    1  UNL1       -0.2486
      5 C          63.2338   86.2689   12.8744 C.2     1  UNL1        0.2703
      6 O          64.0789   86.0552   14.0951 O.2     1  UNL1       -0.2679
      7 C          63.0511   87.6511   12.3211 C.ar    1  UNL1        0.1329
      8 C          63.5757   88.9857   12.7611 C.ar    1  UNL1        0.0435
      9 C          63.0548   90.0242   11.8122 C.ar    1  UNL1        0.1239
     10 N          62.2083   89.3314   10.7859 N.ar    1  UNL1       -0.1698
     11 N          62.2060   87.8647   11.1004 N.ar    1  UNL1       -0.2469
     12 C          62.7540   83.7180   12.7601 C.ar    1  UNL1        0.1005
     13 C          63.3912   82.6517   11.9193 C.ar    1  UNL1        0.0204
     14 C          63.5738   81.2695   12.4725 C.ar    1  UNL1        0.0221
     15 C          63.1193   80.9536   13.8666 C.ar    1  UNL1        0.1014
     16 N          62.4821   82.0198   14.7075 N.ar    1  UNL1       -0.2154
     17 C          62.2994   83.4020   14.1542 C.ar    1  UNL1        0.2360
     18 F          61.6622   84.4684   14.9951 F       1  UNL1       -0.1818
     19 C          63.3318   91.4969   11.8782 C.3     1  UNL1        0.2543
     20 O          64.7357   92.0035   11.7282 O.3     1  UNL1       -0.4535
     21 C          65.6393   92.0739   12.9234 C.ar    1  UNL1        0.2253
     22 C          67.1279   92.0590   12.7401 C.ar    1  UNL1        0.0586
     23 C          68.0316   92.1294   13.9353 C.ar    1  UNL1        0.0178
     24 C          67.4466   92.2149   15.3138 C.ar    1  UNL1        0.0770
     25 CL         68.3502   92.2854   16.5090 Cl      1  UNL1       -0.0806
     26 C          65.9579   92.2299   15.4972 C.ar    1  UNL1        0.1134
     27 N          65.0542   92.1594   14.3020 N.ar    1  UNL1       -0.2092
@<TRIPOS>BOND
     1     2     1    1
     2     2     3    1
     3     3     4    1
     4     4    12    1
     5    12    13   ar
     6    13    14   ar
     7    14    15   ar
     8    15    16   ar
     9    16    17   ar
    10    17    18    1
    11     4     5   am
    12     5     6    2
    13     5     7    1
    14     7     8   ar
    15     8     9   ar
    16     9    19    1
    17    19    20    1
    18    20    21    1
    19    21    22   ar
    20    22    23   ar
    21    23    24   ar
    22    24    25    1
    23    24    26   ar
    24    26    27   ar
    25     9    10   ar
    26    10    11   ar
    27    11     2    1
    28    17    12   ar
    29    11     7   ar
    30    27    21   ar
@<TRIPOS>MOLECULE
*****
 27 30 0 0 0
SMALL
GASTEIGER

@<TRIPOS>ATOM
      1 C          63.8745   87.6966   14.9780 C.3     1  UNL1        0.0282
      2 C          64.2323   88.9794   14.2879 C.3     1  UNL1        0.1255
      3 C          65.3701   89.8133   14.7978 C.3     1  UNL1        0.1229
      4 N          65.7279   91.0961   14.1077 N.am    1  UNL1       -0.2486
      5 C          64.9480   91.5451   12.9076 C.2     1  UNL1        0.2703
      6 O          65.3059   92.8280   12.2175 O.2     1  UNL1       -0.2679
      7 C          63.8102   90.7112   12.3977 C.ar    1  UNL1        0.1329
      8 C          62.8678   90.8962   11.2455 C.ar    1  UNL1        0.0435
      9 C          61.9275   89.7277   11.2235 C.ar    1  UNL1        0.1239
     10 N          62.2888   88.8205   12.3621 N.ar    1  UNL1       -0.1698
     11 N          63.4523   89.4283   13.0878 N.ar    1  UNL1       -0.2469
     12 C          66.8657   91.9300   14.6177 C.ar    1  UNL1        0.1005
     13 C          66.7082   92.7204   15.8828 C.ar    1  UNL1        0.0204
     14 C          67.8460   93.5543   16.3927 C.ar    1  UNL1        0.0221
     15 C          69.1413   93.5979   15.6375 C.ar    1  UNL1        0.1014
     16 N          69.2988   92.8075   14.3724 N.ar    1  UNL1       -0.2154
     17 C          68.1610   91.9736   13.8625 C.ar    1  UNL1        0.2360
     18 F          68.3185   91.1832   12.5974 F       1  UNL1       -0.1818
     19 C          60.8203   89.5054   10.2362 C.3     1  UNL1        0.2543
     20 O          60.2728   88.1256   10.0214 O.3     1  UNL1       -0.4535
     21 C          61.1968   86.9439   10.0204 C.ar    1  UNL1        0.2253
     22 C          61.9807   86.6060    8.7870 C.ar    1  UNL1        0.0586
     23 C          62.9047   85.4244    8.7859 C.ar    1  UNL1        0.0178
     24 C          63.0447   84.5806   10.0182 C.ar    1  UNL1        0.0770
     25 CL         63.9687   83.3990   10.0171 Cl      1  UNL1       -0.0806
     26 C          62.2608   84.9185   11.2515 C.ar    1  UNL1        0.1134
     27 N          61.3368   86.1001   11.2527 N.ar    1  UNL1       -0.2092
@<TRIPOS>BOND
     1     2     1    1
     2     2     3    1
     3     3     4    1
     4     4    12    1
     5    12    13   ar
     6    13    14   ar
     7    14    15   ar
     8    15    16   ar
     9    16    17   ar
    10    17    18    1
    11     4     5   am
    12     5     6    2
    13     5     7    1
    14     7     8   ar
    15     8     9   ar
    16     9    19    1
    17    19    20    1
    18    20    21    1
    19    21    22   ar
    20    22    23   ar
    21    23    24   ar
    22    24    25    1
    23    24    26   ar
    24    26    27   ar
    25     9    10   ar
    26    10    11   ar
    27    11     2    1
    28    17    12   ar
    29    11     7   ar
    30    27    21   ar
@<TRIPOS>MOLECULE
*****
 27 30 0 0 0
SMALL
GASTEIGER

@<TRIPOS>ATOM
      1 C          63.9858   85.7709   14.1505 C.3     1  UNL1        0.0282
      2 C          63.4960   86.7869   13.1616 C.3     1  UNL1        0.1255
      3 C          62.7120   86.3473   11.9607 C.3     1  UNL1        0.1229
      4 N          62.2222   87.3631   10.9718 N.am    1  UNL1       -0.2486
      5 C          62.5163   88.8187   11.1838 C.2     1  UNL1        0.2703
      6 O          62.0265   89.8346   10.1948 O.2     1  UNL1       -0.2679
      7 C          63.3003   89.2583   12.3846 C.ar    1  UNL1        0.1329
      8 C          63.7409   90.6129   12.8548 C.ar    1  UNL1        0.0435
      9 C          64.5031   90.4341   14.1343 C.ar    1  UNL1        0.1239
     10 N          64.5335   88.9690   14.4549 N.ar    1  UNL1       -0.1698
     11 N          63.7902   88.2424   13.3736 N.ar    1  UNL1       -0.2469
     12 C          61.4382   86.9235    9.7709 C.ar    1  UNL1        0.1005
     13 C          60.0161   87.3689    9.5994 C.ar    1  UNL1        0.0204
     14 C          59.2321   86.9293    8.3986 C.ar    1  UNL1        0.0221
     15 C          59.8702   86.0443    7.3692 C.ar    1  UNL1        0.1014
     16 N          61.2922   85.5989    7.5407 N.ar    1  UNL1       -0.2154
     17 C          62.0762   86.0385    8.7415 C.ar    1  UNL1        0.2360
     18 F          63.4983   85.5931    8.9131 F       1  UNL1       -0.1818
     19 C          65.1256   91.5282   14.9500 C.3     1  UNL1        0.2543
     20 O          65.6426   92.7646   14.2762 O.3     1  UNL1       -0.4535
     21 C          66.3446   92.6607   12.9546 C.ar    1  UNL1        0.2253
     22 C          67.6227   91.8835   12.8434 C.ar    1  UNL1        0.0586
     23 C          68.3247   91.7795   11.5219 C.ar    1  UNL1        0.0178
     24 C          67.7485   92.4527   10.3116 C.ar    1  UNL1        0.0770
     25 CL         68.4505   92.3487    8.9900 Cl      1  UNL1       -0.0806
     26 C          66.4704   93.2299   10.4228 C.ar    1  UNL1        0.1134
     27 N          65.7684   93.3338   11.7443 N.ar    1  UNL1       -0.2092
@<TRIPOS>BOND
     1     2     1    1
     2     2     3    1
     3     3     4    1
     4     4    12    1
     5    12    13   ar
     6    13    14   ar
     7    14    15   ar
     8    15    16   ar
     9    16    17   ar
    10    17    18    1
    11     4     5   am
    12     5     6    2
    13     5     7    1
    14     7     8   ar
    15     8     9   ar
    16     9    19    1
    17    19    20    1
    18    20    21    1
    19    21    22   ar
    20    22    23   ar
    21    23    24   ar
    22    24    25    1
    23    24    26   ar
    24    26    27   ar
    25     9    10   ar
    26    10    11   ar
    27    11     2    1
    28    17    12   ar
    29    11     7   ar
    30    27    21   ar
@<TRIPOS>MOLECULE
*****
 27 30 0 0 0
SMALL
GASTEIGER

@<TRIPOS>ATOM
      1 C          64.0087   87.4170   14.7575 C.3     1  UNL1        0.0282
      2 C          64.2665   88.7771   14.1798 C.3     1  UNL1        0.1255
      3 C          65.3641   89.6335   14.7383 C.3     1  UNL1        0.1229
      4 N          65.6218   90.9935   14.1606 N.am    1  UNL1       -0.2486
      5 C          64.7820   91.4973   13.0244 C.2     1  UNL1        0.2703
      6 O          65.0398   92.8574   12.4467 O.2     1  UNL1       -0.2679
      7 C          63.6844   90.6409   12.4659 C.ar    1  UNL1        0.1329
      8 C          62.7002   90.8676   11.3568 C.ar    1  UNL1        0.0435
      9 C          61.8342   89.6476   11.2491 C.ar    1  UNL1        0.1239
     10 N          62.2832   88.6669   12.2916 N.ar    1  UNL1       -0.1698
     11 N          63.4267   89.2808   13.0436 N.ar    1  UNL1       -0.2469
     12 C          66.7195   91.8499   14.7191 C.ar    1  UNL1        0.1005
     13 C          68.0584   91.8878   14.0439 C.ar    1  UNL1        0.0204
     14 C          69.1560   92.7442   14.6024 C.ar    1  UNL1        0.0221
     15 C          68.9147   93.5625   15.8361 C.ar    1  UNL1        0.1014
     16 N          67.5758   93.5246   16.5113 N.ar    1  UNL1       -0.2154
     17 C          66.4782   92.6682   15.9529 C.ar    1  UNL1        0.2360
     18 F          65.1393   92.6302   16.6280 F       1  UNL1       -0.1818
     19 C          60.7156   89.4440   10.2707 C.3     1  UNL1        0.2543
     20 O          60.0840   88.0914   10.1244 O.3     1  UNL1       -0.4535
     21 C          60.6377   87.1080    9.1362 C.ar    1  UNL1        0.2253
     22 C          62.0519   86.6262    9.2696 C.ar    1  UNL1        0.0586
     23 C          62.6057   85.6429    8.2815 C.ar    1  UNL1        0.0178
     24 C          61.7452   85.1414    7.1598 C.ar    1  UNL1        0.0770
     25 CL         62.2990   84.1581    6.1717 Cl      1  UNL1       -0.0806
     26 C          60.3310   85.6232    7.0264 C.ar    1  UNL1        0.1134
     27 N          59.7773   86.6065    8.0146 N.ar    1  UNL1       -0.2092
@<TRIPOS>BOND
     1     2     1    1
     2     2     3    1
     3     3     4    1
     4     4    12    1
     5    12    13   ar
     6    13    14   ar
     7    14    15   ar
     8    15    16   ar
     9    16    17   ar
    10    17    18    1
    11     4     5   am
    12     5     6    2
    13     5     7    1
    14     7     8   ar
    15     8     9   ar
    16     9    19    1
    17    19    20    1
    18    20    21    1
    19    21    22   ar
    20    22    23   ar
    21    23    24   ar
    22    24    25    1
    23    24    26   ar
    24    26    27   ar
    25     9    10   ar
    26    10    11   ar
    27    11     2    1
    28    17    12   ar
    29    11     7   ar
    30    27    21   ar
@<TRIPOS>MOLECULE
*****
 27 30 0 0 0
SMALL
GASTEIGER

@<TRIPOS>ATOM
      1 C          61.9261   87.0493   10.0958 C.3     1  UNL1        0.0282
      2 C          62.4458   86.2840   11.2766 C.3     1  UNL1        0.1255
      3 C          62.3079   84.7911   11.3225 C.3     1  UNL1        0.1229
      4 N          62.8276   84.0258   12.5032 N.am    1  UNL1       -0.2486
      5 C          63.4851   84.7535   13.6383 C.2     1  UNL1        0.2703
      6 O          64.0047   83.9882   14.8191 O.2     1  UNL1       -0.2679
      7 C          63.6229   86.2464   13.5924 C.ar    1  UNL1        0.1329
      8 C          64.2202   87.2293   14.5554 C.ar    1  UNL1        0.0435
      9 C          64.0697   88.6020   13.9697 C.ar    1  UNL1        0.1239
     10 N          63.3794   88.4675   12.6448 N.ar    1  UNL1       -0.1698
     11 N          63.1032   87.0117   12.4116 N.ar    1  UNL1       -0.2469
     12 C          62.6897   82.5328   12.5491 C.ar    1  UNL1        0.1005
     13 C          62.0185   81.8772   13.7194 C.ar    1  UNL1        0.0204
     14 C          61.8807   80.3842   13.7652 C.ar    1  UNL1        0.0221
     15 C          62.4141   79.5469   12.6408 C.ar    1  UNL1        0.1014
     16 N          63.0853   80.2026   11.4705 N.ar    1  UNL1       -0.2154
     17 C          63.2231   81.6955   11.4246 C.ar    1  UNL1        0.2360
     18 F          63.8944   82.3512   10.2544 F       1  UNL1       -0.1818
     19 C          64.5288   89.8841   14.5985 C.3     1  UNL1        0.2543
     20 O          65.1707   90.9454   13.7549 O.3     1  UNL1       -0.4535
     21 C          66.2169   91.8428   14.3466 C.ar    1  UNL1        0.2253
     22 C          67.2983   91.2656   15.2112 C.ar    1  UNL1        0.0586
     23 C          68.3445   92.1630   15.8030 C.ar    1  UNL1        0.0178
     24 C          68.3094   93.6375   15.5301 C.ar    1  UNL1        0.0770
     25 CL         69.3557   94.5349   16.1218 Cl      1  UNL1       -0.0806
     26 C          67.2281   94.2147   14.6655 C.ar    1  UNL1        0.1134
     27 N          66.1818   93.3174   14.0738 N.ar    1  UNL1       -0.2092
@<TRIPOS>BOND
     1     2     1    1
     2     2     3    1
     3     3     4    1
     4     4    12    1
     5    12    13   ar
     6    13    14   ar
     7    14    15   ar
     8    15    16   ar
     9    16    17   ar
    10    17    18    1
    11     4     5   am
    12     5     6    2
    13     5     7    1
    14     7     8   ar
    15     8     9   ar
    16     9    19    1
    17    19    20    1
    18    20    21    1
    19    21    22   ar
    20    22    23   ar
    21    23    24   ar
    22    24    25    1
    23    24    26   ar
    24    26    27   ar
    25     9    10   ar
    26    10    11   ar
    27    11     2    1
    28    17    12   ar
    29    11     7   ar
    30    27    21   ar
