@<TRIPOS>MOLECULE
*****
 25 27 0 0 0
SMALL
GASTEIGER

@<TRIPOS>ATOM
      1 C          61.7288   85.8776   11.7805 C.3     1  UNL1        0.1234
      2 C          62.7397   84.7956   11.5403 C.ar    1  UNL1       -0.0022
      3 C          62.8992   84.2092   10.1690 C.ar    1  UNL1       -0.0026
      4 C          63.9101   83.1274    9.9289 C.ar    1  UNL1       -0.0003
      5 C          64.7614   82.6319   11.0602 C.ar    1  UNL1       -0.0000
      6 C          64.6019   83.2184   12.4315 C.ar    1  UNL1       -0.0003
      7 C          63.5911   84.3002   12.6716 C.ar    1  UNL1       -0.0024
      8 C          63.4315   84.8867   14.0430 C.ar    1  UNL1       -0.0003
      9 C          62.4431   84.2927   15.0023 C.ar    1  UNL1       -0.0000
     10 C          62.2835   84.8792   16.3736 C.ar    1  UNL1       -0.0000
     11 C          63.1123   86.0596   16.7857 C.ar    1  UNL1       -0.0000
     12 C          64.1007   86.6535   15.8264 C.ar    1  UNL1       -0.0000
     13 C          64.2603   86.0671   14.4550 C.ar    1  UNL1       -0.0000
     14 C          62.3839   88.2850   11.0558 C.2     1  UNL1        0.4051
     15 O          63.2736   88.4046   12.2575 O.2     1  UNL1       -0.2262
     16 N          61.6114   87.0215   10.8173 N.am    1  UNL1       -0.2421
     17 C          60.7216   86.9019    9.6157 C.3     1  UNL1        0.0959
     18 C          61.0110   86.1016    8.3804 C.3     1  UNL1        0.0384
     19 C          59.8545   86.2667    7.4396 C.3     1  UNL1        0.0704
     20 N          58.8503   87.1691    8.0934 N.3     1  UNL1       -0.2960
     21 C          59.3863   87.5616    9.4383 C.3     1  UNL1        0.0888
     22 H          57.9636   86.6773    8.2043 H       1  UNL1        0.1233
     23 O          62.2665   89.4290   10.0927 O.3     1  UNL1       -0.4345
     24 C          63.7136   91.5509   10.4842 C.3     1  UNL1        0.0513
     25 C          62.3966   90.8400   10.5846 C.3     1  UNL1        0.2102
@<TRIPOS>BOND
     1    24    25    1
     2    25    23    1
     3    23    14    1
     4    14    15    2
     5    14    16   am
     6    16     1    1
     7     1     2    1
     8     2     3   ar
     9     3     4   ar
    10     4     5   ar
    11     5     6   ar
    12     6     7   ar
    13     7     8    1
    14     8     9   ar
    15     9    10   ar
    16    10    11   ar
    17    11    12   ar
    18    12    13   ar
    19    17    16    1
    20    17    18    1
    21    18    19    1
    22    19    20    1
    23    20    21    1
    24     7     2   ar
    25    13     8   ar
    26    21    17    1
    27    20    22    1
@<TRIPOS>MOLECULE
*****
 25 27 0 0 0
SMALL
GASTEIGER

@<TRIPOS>ATOM
      1 C          62.0746   85.7528   11.8235 C.3     1  UNL1        0.1234
      2 C          62.4603   87.1944   11.6707 C.ar    1  UNL1       -0.0022
      3 C          63.2211   87.8869   12.7623 C.ar    1  UNL1       -0.0026
      4 C          63.6067   89.3284   12.6095 C.ar    1  UNL1       -0.0003
      5 C          63.2315   90.0774   11.3652 C.ar    1  UNL1       -0.0000
      6 C          62.4707   89.3848   10.2737 C.ar    1  UNL1       -0.0003
      7 C          62.0851   87.9434   10.4264 C.ar    1  UNL1       -0.0024
      8 C          61.3242   87.2507    9.3349 C.ar    1  UNL1       -0.0003
      9 C          62.0005   86.2089    8.4939 C.ar    1  UNL1       -0.0000
     10 C          61.2397   85.5163    7.4024 C.ar    1  UNL1       -0.0000
     11 C          59.8026   85.8655    7.1518 C.ar    1  UNL1       -0.0000
     12 C          59.1263   86.9074    7.9927 C.ar    1  UNL1       -0.0000
     13 C          59.8871   87.6000    9.0843 C.ar    1  UNL1       -0.0000
     14 C          63.7368   83.7593   11.7106 C.2     1  UNL1        0.4051
     15 O          63.5394   83.6787   10.2259 O.2     1  UNL1       -0.2262
     16 N          63.0044   84.7964   12.5095 N.am    1  UNL1       -0.2421
     17 C          63.2019   84.8769   13.9942 C.3     1  UNL1        0.0959
     18 C          62.2207   84.4355   15.0394 C.3     1  UNL1        0.0384
     19 C          62.8275   84.6989   16.3856 C.3     1  UNL1        0.0704
     20 N          64.1839   85.3030   16.1724 N.3     1  UNL1       -0.2960
     21 C          64.4152   85.4131   14.6944 C.3     1  UNL1        0.0888
     22 H          64.8980   84.7071   16.5911 H       1  UNL1        0.1233
     23 O          64.6667   82.8028   12.3966 O.3     1  UNL1       -0.4345
     24 C          62.6878   81.1706   12.8092 C.3     1  UNL1        0.0513
     25 C          64.1335   81.5302   12.9849 C.3     1  UNL1        0.2102
@<TRIPOS>BOND
     1    24    25    1
     2    25    23    1
     3    23    14    1
     4    14    15    2
     5    14    16   am
     6    16     1    1
     7     1     2    1
     8     2     3   ar
     9     3     4   ar
    10     4     5   ar
    11     5     6   ar
    12     6     7   ar
    13     7     8    1
    14     8     9   ar
    15     9    10   ar
    16    10    11   ar
    17    11    12   ar
    18    12    13   ar
    19    17    16    1
    20    17    18    1
    21    18    19    1
    22    19    20    1
    23    20    21    1
    24     7     2   ar
    25    13     8   ar
    26    21    17    1
    27    20    22    1
@<TRIPOS>MOLECULE
*****
 25 27 0 0 0
SMALL
GASTEIGER

@<TRIPOS>ATOM
      1 C          62.0003   85.2068   11.7251 C.3     1  UNL1        0.1234
      2 C          62.9509   85.5840   12.8224 C.ar    1  UNL1       -0.0022
      3 C          63.3793   87.0122   12.9856 C.ar    1  UNL1       -0.0026
      4 C          64.3299   87.3894   14.0829 C.ar    1  UNL1       -0.0003
      5 C          64.8520   86.3384   15.0171 C.ar    1  UNL1       -0.0000
      6 C          64.4236   84.9102   14.8540 C.ar    1  UNL1       -0.0003
      7 C          63.4731   84.5330   13.7566 C.ar    1  UNL1       -0.0024
      8 C          63.0446   83.1047   13.5935 C.ar    1  UNL1       -0.0003
      9 C          63.7593   82.2137   12.6212 C.ar    1  UNL1       -0.0000
     10 C          63.3309   80.7855   12.4580 C.ar    1  UNL1       -0.0000
     11 C          62.1877   80.2483   13.2671 C.ar    1  UNL1       -0.0000
     12 C          61.4730   81.1392   14.2394 C.ar    1  UNL1       -0.0000
     13 C          61.9015   82.5675   14.4025 C.ar    1  UNL1       -0.0000
     14 C          63.0752   84.9841    9.3702 C.2     1  UNL1        0.4051
     15 O          63.7325   83.7033    9.7913 O.2     1  UNL1       -0.2262
     16 N          62.2091   85.7359   10.3371 N.am    1  UNL1       -0.2421
     17 C          61.5519   87.0168    9.9160 C.3     1  UNL1        0.0959
     18 C          62.1209   88.3951   10.0797 C.3     1  UNL1        0.0384
     19 C          61.1309   89.3744    9.5221 C.3     1  UNL1        0.0704
     20 N          59.9501   88.6014    9.0139 N.3     1  UNL1       -0.2960
     21 C          60.2103   87.1443    9.2574 C.3     1  UNL1        0.0888
     22 H          59.8303   88.7694    8.0150 H       1  UNL1        0.1233
     23 O          63.2840   85.5133    7.9823 O.3     1  UNL1       -0.4345
     24 C          61.2044   84.7417    6.6297 C.3     1  UNL1        0.0513
     25 C          62.6929   84.7916    6.8077 C.3     1  UNL1        0.2102
@<TRIPOS>BOND
     1    24    25    1
     2    25    23    1
     3    23    14    1
     4    14    15    2
     5    14    16   am
     6    16     1    1
     7     1     2    1
     8     2     3   ar
     9     3     4   ar
    10     4     5   ar
    11     5     6   ar
    12     6     7   ar
    13     7     8    1
    14     8     9   ar
    15     9    10   ar
    16    10    11   ar
    17    11    12   ar
    18    12    13   ar
    19    17    16    1
    20    17    18    1
    21    18    19    1
    22    19    20    1
    23    20    21    1
    24     7     2   ar
    25    13     8   ar
    26    21    17    1
    27    20    22    1
@<TRIPOS>MOLECULE
*****
 25 27 0 0 0
SMALL
GASTEIGER

@<TRIPOS>ATOM
      1 C          61.7379   86.5327   11.5496 C.3     1  UNL1        0.1234
      2 C          62.6180   85.4111   11.0829 C.ar    1  UNL1       -0.0022
      3 C          62.7114   85.0897    9.6208 C.ar    1  UNL1       -0.0026
      4 C          63.5914   83.9682    9.1542 C.ar    1  UNL1       -0.0003
      5 C          64.3780   83.1681   10.1498 C.ar    1  UNL1       -0.0000
      6 C          64.2845   83.4895   11.6119 C.ar    1  UNL1       -0.0003
      7 C          63.4045   84.6110   12.0785 C.ar    1  UNL1       -0.0024
      8 C          63.3110   84.9324   13.5407 C.ar    1  UNL1       -0.0003
      9 C          62.3641   84.1680   14.4176 C.ar    1  UNL1       -0.0000
     10 C          62.2706   84.4894   15.8797 C.ar    1  UNL1       -0.0000
     11 C          63.1240   85.5753   16.4651 C.ar    1  UNL1       -0.0000
     12 C          64.0710   86.3397   15.5882 C.ar    1  UNL1       -0.0000
     13 C          64.1644   86.0183   14.1260 C.ar    1  UNL1       -0.0000
     14 C          60.5902   87.7085    9.5371 C.2     1  UNL1        0.4051
     15 O          59.8175   86.4563    9.2460 O.2     1  UNL1       -0.2262
     16 N          61.5504   87.7468   10.6889 N.am    1  UNL1       -0.2421
     17 C          62.3231   88.9990   10.9799 C.3     1  UNL1        0.0959
     18 C          62.9920   89.3407   12.2784 C.3     1  UNL1        0.0384
     19 C          63.6448   90.6823   12.1246 C.3     1  UNL1        0.0704
     20 N          63.3795   91.1699   10.7310 N.3     1  UNL1       -0.2960
     21 C          62.5626   90.1295   10.0236 C.3     1  UNL1        0.0888
     22 H          64.2621   91.3102   10.2394 H       1  UNL1        0.1233
     23 O          60.4027   88.9226    8.6764 O.3     1  UNL1       -0.4345
     24 C          59.6075   89.7797    6.3562 C.3     1  UNL1        0.0513
     25 C          59.4070   88.9004    7.5548 C.3     1  UNL1        0.2102
@<TRIPOS>BOND
     1    24    25    1
     2    25    23    1
     3    23    14    1
     4    14    15    2
     5    14    16   am
     6    16     1    1
     7     1     2    1
     8     2     3   ar
     9     3     4   ar
    10     4     5   ar
    11     5     6   ar
    12     6     7   ar
    13     7     8    1
    14     8     9   ar
    15     9    10   ar
    16    10    11   ar
    17    11    12   ar
    18    12    13   ar
    19    17    16    1
    20    17    18    1
    21    18    19    1
    22    19    20    1
    23    20    21    1
    24     7     2   ar
    25    13     8   ar
    26    21    17    1
    27    20    22    1
@<TRIPOS>MOLECULE
*****
 25 27 0 0 0
SMALL
GASTEIGER

@<TRIPOS>ATOM
      1 C          62.0604   85.6064   12.2585 C.3     1  UNL1        0.1234
      2 C          62.4127   85.4276   10.8114 C.ar    1  UNL1       -0.0022
      3 C          63.0109   84.1356   10.3392 C.ar    1  UNL1       -0.0026
      4 C          63.3632   83.9569    8.8922 C.ar    1  UNL1       -0.0003
      5 C          63.1172   85.0700    7.9174 C.ar    1  UNL1       -0.0000
      6 C          62.5189   86.3620    8.3895 C.ar    1  UNL1       -0.0003
      7 C          62.1667   86.5407    9.8365 C.ar    1  UNL1       -0.0024
      8 C          61.5684   87.8327   10.3087 C.ar    1  UNL1       -0.0003
      9 C          60.1395   87.8757   10.7631 C.ar    1  UNL1       -0.0000
     10 C          59.5412   89.1676   11.2353 C.ar    1  UNL1       -0.0000
     11 C          60.3718   90.4166   11.2532 C.ar    1  UNL1       -0.0000
     12 C          61.8007   90.3736   10.7988 C.ar    1  UNL1       -0.0000
     13 C          62.3990   89.0816   10.3266 C.ar    1  UNL1       -0.0000
     14 C          63.8983   86.0943   14.0288 C.2     1  UNL1        0.4051
     15 O          63.8597   87.5497   13.6678 O.2     1  UNL1       -0.2262
     16 N          62.9986   85.1226   13.3241 N.am    1  UNL1       -0.2421
     17 C          63.0373   83.6672   13.6851 C.3     1  UNL1        0.0959
     18 C          63.9978   82.6499   13.1444 C.3     1  UNL1        0.0384
     19 C          63.6763   81.3275   13.7753 C.3     1  UNL1        0.0704
     20 N          62.5171   81.5277   14.7060 N.3     1  UNL1       -0.2960
     21 C          62.1221   82.9737   14.6502 C.3     1  UNL1        0.0888
     22 H          62.7899   81.2798   15.6570 H       1  UNL1        0.1233
     23 O          64.8366   85.6105   15.0944 O.3     1  UNL1       -0.4345
     24 C          63.1163   86.1490   16.9653 C.3     1  UNL1        0.0513
     25 C          64.3446   85.4252   16.4992 C.3     1  UNL1        0.2102
@<TRIPOS>BOND
     1    24    25    1
     2    25    23    1
     3    23    14    1
     4    14    15    2
     5    14    16   am
     6    16     1    1
     7     1     2    1
     8     2     3   ar
     9     3     4   ar
    10     4     5   ar
    11     5     6   ar
    12     6     7   ar
    13     7     8    1
    14     8     9   ar
    15     9    10   ar
    16    10    11   ar
    17    11    12   ar
    18    12    13   ar
    19    17    16    1
    20    17    18    1
    21    18    19    1
    22    19    20    1
    23    20    21    1
    24     7     2   ar
    25    13     8   ar
    26    21    17    1
    27    20    22    1
@<TRIPOS>MOLECULE
*****
 25 27 0 0 0
SMALL
GASTEIGER

@<TRIPOS>ATOM
      1 C          64.4691   87.7786   14.1449 C.3     1  UNL1        0.1234
      2 C          63.7476   87.1336   15.2911 C.ar    1  UNL1       -0.0022
      3 C          63.5030   87.9060   16.5534 C.ar    1  UNL1       -0.0026
      4 C          62.7817   87.2610   17.6994 C.ar    1  UNL1       -0.0003
      5 C          62.3049   85.8435   17.5832 C.ar    1  UNL1       -0.0000
      6 C          62.5495   85.0711   16.3209 C.ar    1  UNL1       -0.0003
      7 C          63.2709   85.7162   15.1748 C.ar    1  UNL1       -0.0024
      8 C          63.5155   84.9437   13.9124 C.ar    1  UNL1       -0.0003
      9 C          62.5648   85.0710   12.7592 C.ar    1  UNL1       -0.0000
     10 C          62.8094   84.2986   11.4968 C.ar    1  UNL1       -0.0000
     11 C          64.0048   83.3989   11.3877 C.ar    1  UNL1       -0.0000
     12 C          64.9554   83.2717   12.5409 C.ar    1  UNL1       -0.0000
     13 C          64.7108   84.0441   13.8033 C.ar    1  UNL1       -0.0000
     14 C          63.2070   89.3615   12.5164 C.2     1  UNL1        0.4051
     15 O          62.6911   88.1728   11.7609 O.2     1  UNL1       -0.2262
     16 N          64.0960   89.1644   13.7085 N.am    1  UNL1       -0.2421
     17 C          64.6120   90.3531   14.4640 C.3     1  UNL1        0.0959
     18 C          65.9235   91.0433   14.2329 C.3     1  UNL1        0.0384
     19 C          66.0291   92.1770   15.2093 C.3     1  UNL1        0.0704
     20 N          64.7827   92.1875   16.0439 N.3     1  UNL1       -0.2960
     21 C          63.9069   91.0602   15.5832 C.3     1  UNL1        0.0888
     22 H          64.2947   93.0754   15.9261 H       1  UNL1        0.1233
     23 O          62.8340   90.7472   12.0799 O.3     1  UNL1       -0.4345
     24 C          64.7013   92.0843   10.8653 C.3     1  UNL1        0.0513
     25 C          63.4128   91.3178   10.8192 C.3     1  UNL1        0.2102
@<TRIPOS>BOND
     1    24    25    1
     2    25    23    1
     3    23    14    1
     4    14    15    2
     5    14    16   am
     6    16     1    1
     7     1     2    1
     8     2     3   ar
     9     3     4   ar
    10     4     5   ar
    11     5     6   ar
    12     6     7   ar
    13     7     8    1
    14     8     9   ar
    15     9    10   ar
    16    10    11   ar
    17    11    12   ar
    18    12    13   ar
    19    17    16    1
    20    17    18    1
    21    18    19    1
    22    19    20    1
    23    20    21    1
    24     7     2   ar
    25    13     8   ar
    26    21    17    1
    27    20    22    1
@<TRIPOS>MOLECULE
*****
 25 27 0 0 0
SMALL
GASTEIGER

@<TRIPOS>ATOM
      1 C          64.2444   86.6159   13.7898 C.3     1  UNL1        0.1234
      2 C          63.7553   86.9504   15.1679 C.ar    1  UNL1       -0.0022
      3 C          63.3829   85.8518   16.1188 C.ar    1  UNL1       -0.0026
      4 C          62.8939   86.1864   17.4967 C.ar    1  UNL1       -0.0003
      5 C          62.7773   87.6195   17.9238 C.ar    1  UNL1       -0.0000
      6 C          63.1497   88.7182   16.9729 C.ar    1  UNL1       -0.0003
      7 C          63.6387   88.3836   15.5949 C.ar    1  UNL1       -0.0024
      8 C          64.0112   89.4823   14.6439 C.ar    1  UNL1       -0.0003
      9 C          63.0383   89.9253   13.5917 C.ar    1  UNL1       -0.0000
     10 C          63.4107   91.0238   12.6407 C.ar    1  UNL1       -0.0000
     11 C          64.7560   91.6795   12.7420 C.ar    1  UNL1       -0.0000
     12 C          65.7290   91.2365   13.7942 C.ar    1  UNL1       -0.0000
     13 C          65.3565   90.1379   14.7452 C.ar    1  UNL1       -0.0000
     14 C          62.5279   86.3505   11.8576 C.2     1  UNL1        0.4051
     15 O          62.4571   87.8421   11.7156 O.2     1  UNL1       -0.2262
     16 N          63.4216   85.7374   12.8947 N.am    1  UNL1       -0.2421
     17 C          63.4924   84.2458   13.0367 C.3     1  UNL1        0.0959
     18 C          64.4947   83.3441   12.3792 C.3     1  UNL1        0.0384
     19 C          64.1951   81.9351   12.7972 C.3     1  UNL1        0.0704
     20 N          63.0075   81.9660   13.7131 N.3     1  UNL1       -0.2960
     21 C          62.5733   83.3941   13.8611 C.3     1  UNL1        0.0888
     22 H          63.2632   81.5857   14.6244 H       1  UNL1        0.1233
     23 O          61.7051   85.4720   10.9625 O.3     1  UNL1       -0.4345
     24 C          62.7954   85.5679    8.6062 C.3     1  UNL1        0.0513
     25 C          61.6068   85.7766    9.4970 C.3     1  UNL1        0.2102
@<TRIPOS>BOND
     1    24    25    1
     2    25    23    1
     3    23    14    1
     4    14    15    2
     5    14    16   am
     6    16     1    1
     7     1     2    1
     8     2     3   ar
     9     3     4   ar
    10     4     5   ar
    11     5     6   ar
    12     6     7   ar
    13     7     8    1
    14     8     9   ar
    15     9    10   ar
    16    10    11   ar
    17    11    12   ar
    18    12    13   ar
    19    17    16    1
    20    17    18    1
    21    18    19    1
    22    19    20    1
    23    20    21    1
    24     7     2   ar
    25    13     8   ar
    26    21    17    1
    27    20    22    1
@<TRIPOS>MOLECULE
*****
 25 27 0 0 0
SMALL
GASTEIGER

@<TRIPOS>ATOM
      1 C          63.3517   90.2699   13.1483 C.3     1  UNL1        0.1234
      2 C          63.6171   88.8168   13.4096 C.ar    1  UNL1       -0.0022
      3 C          64.4645   88.4074   14.5775 C.ar    1  UNL1       -0.0026
      4 C          64.7299   86.9543   14.8388 C.ar    1  UNL1       -0.0003
      5 C          64.1478   85.9108   13.9321 C.ar    1  UNL1       -0.0000
      6 C          63.3003   86.3202   12.7641 C.ar    1  UNL1       -0.0003
      7 C          63.0350   87.7732   12.5029 C.ar    1  UNL1       -0.0024
      8 C          62.1875   88.1827   11.3349 C.ar    1  UNL1       -0.0003
      9 C          61.0016   87.3529   10.9412 C.ar    1  UNL1       -0.0000
     10 C          60.1541   87.7624    9.7733 C.ar    1  UNL1       -0.0000
     11 C          60.4925   89.0017    8.9989 C.ar    1  UNL1       -0.0000
     12 C          61.6785   89.8315    9.3926 C.ar    1  UNL1       -0.0000
     13 C          62.5260   89.4220   10.5606 C.ar    1  UNL1       -0.0000
     14 C          64.4750   91.7916   14.9295 C.2     1  UNL1        0.4051
     15 O          63.5417   91.2569   15.9749 O.2     1  UNL1       -0.2262
     16 N          64.3801   91.2981   13.5161 N.am    1  UNL1       -0.2421
     17 C          65.3134   91.8327   12.4707 C.3     1  UNL1        0.0959
     18 C          64.9383   92.2295   11.0736 C.3     1  UNL1        0.0384
     19 C          66.1788   92.7065   10.3783 C.3     1  UNL1        0.0704
     20 N          67.3207   92.6046   11.3457 N.3     1  UNL1       -0.2960
     21 C          66.7858   92.0646   12.6389 C.3     1  UNL1        0.0888
     22 H          67.7286   93.5270   11.4981 H       1  UNL1        0.1233
     23 O          65.5034   92.8197   15.2974 O.3     1  UNL1       -0.4345
     24 C          67.9913   92.6660   16.0298 C.3     1  UNL1        0.0513
     25 C          66.5328   92.5100   16.3435 C.3     1  UNL1        0.2102
@<TRIPOS>BOND
     1    24    25    1
     2    25    23    1
     3    23    14    1
     4    14    15    2
     5    14    16   am
     6    16     1    1
     7     1     2    1
     8     2     3   ar
     9     3     4   ar
    10     4     5   ar
    11     5     6   ar
    12     6     7   ar
    13     7     8    1
    14     8     9   ar
    15     9    10   ar
    16    10    11   ar
    17    11    12   ar
    18    12    13   ar
    19    17    16    1
    20    17    18    1
    21    18    19    1
    22    19    20    1
    23    20    21    1
    24     7     2   ar
    25    13     8   ar
    26    21    17    1
    27    20    22    1
@<TRIPOS>MOLECULE
*****
 25 27 0 0 0
SMALL
GASTEIGER

@<TRIPOS>ATOM
      1 C          63.5751   90.6074   13.5788 C.3     1  UNL1        0.1234
      2 C          63.7252   89.1166   13.6511 C.ar    1  UNL1       -0.0022
      3 C          64.6238   88.5025   14.6832 C.ar    1  UNL1       -0.0026
      4 C          64.7739   87.0118   14.7554 C.ar    1  UNL1       -0.0003
      5 C          64.0253   86.1352   13.7956 C.ar    1  UNL1       -0.0000
      6 C          63.1267   86.7494   12.7635 C.ar    1  UNL1       -0.0003
      7 C          62.9766   88.2401   12.6912 C.ar    1  UNL1       -0.0024
      8 C          62.0779   88.8543   11.6591 C.ar    1  UNL1       -0.0003
      9 C          60.9430   89.7384   12.0835 C.ar    1  UNL1       -0.0000
     10 C          60.0443   90.3526   11.0515 C.ar    1  UNL1       -0.0000
     11 C          60.2806   90.0827    9.5949 C.ar    1  UNL1       -0.0000
     12 C          61.4156   89.1985    9.1706 C.ar    1  UNL1       -0.0000
     13 C          62.3142   88.5843   10.2027 C.ar    1  UNL1       -0.0000
     14 C          65.0083   91.9533   11.8804 C.2     1  UNL1        0.4051
     15 O          64.0580   91.5790   10.7818 O.2     1  UNL1       -0.2262
     16 N          64.7668   91.4675   13.2789 N.am    1  UNL1       -0.2421
     17 C          65.7171   91.8418   14.3774 C.3     1  UNL1        0.0959
     18 C          67.1921   91.5696   14.3981 C.3     1  UNL1        0.0384
     19 C          67.7459   92.1135   15.6816 C.3     1  UNL1        0.0704
     20 N          66.6131   92.7220   16.4542 N.3     1  UNL1       -0.2960
     21 C          65.3593   92.5540   15.6481 C.3     1  UNL1        0.0888
     22 H          66.7939   93.7136   16.6104 H       1  UNL1        0.1233
     23 O          66.2000   92.8134   11.5805 O.3     1  UNL1       -0.4345
     24 C          68.1750   92.1556   10.0259 C.3     1  UNL1        0.0513
     25 C          66.8248   92.7804   10.2172 C.3     1  UNL1        0.2102
@<TRIPOS>BOND
     1    24    25    1
     2    25    23    1
     3    23    14    1
     4    14    15    2
     5    14    16   am
     6    16     1    1
     7     1     2    1
     8     2     3   ar
     9     3     4   ar
    10     4     5   ar
    11     5     6   ar
    12     6     7   ar
    13     7     8    1
    14     8     9   ar
    15     9    10   ar
    16    10    11   ar
    17    11    12   ar
    18    12    13   ar
    19    17    16    1
    20    17    18    1
    21    18    19    1
    22    19    20    1
    23    20    21    1
    24     7     2   ar
    25    13     8   ar
    26    21    17    1
    27    20    22    1
