@<TRIPOS>MOLECULE
*****
 37 41 0 0 0
SMALL
GASTEIGER

@<TRIPOS>ATOM
      1 C          61.5583   88.7689   11.1977 C.ar    1  UNL1        0.0040
      2 C          61.1950   87.7512   10.1574 C.ar    1  UNL1        0.0719
      3 C          61.8239   86.4462   10.5462 C.ar    1  UNL1        0.1049
      4 N          62.5759   86.6573   11.8268 N.ar    1  UNL1       -0.2242
      5 N          63.3889   85.7278   12.6783 N.ar    1  UNL1       -0.1422
      6 C          64.0378   86.2339   13.9324 C.ar    1  UNL1        0.2211
      7 N          63.8736   87.6695   14.3350 N.ar    1  UNL1       -0.2060
      8 C          63.0606   88.5990   13.4836 C.ar    1  UNL1        0.1515
      9 C          62.4117   88.0929   12.2295 C.ar    1  UNL1        0.1107
     10 C          60.3509   87.9957    8.9417 C.ar    1  UNL1        0.2525
     11 N          59.3772   87.0290    8.3355 N.ar    1  UNL1       -0.1057
     12 N          58.7569   87.6856    7.1379 N.ar    1  UNL1       -0.0921
     13 C          59.3473   89.0580    7.0040 C.ar    1  UNL1        0.3120
     14 O          60.3324   89.2496    8.1188 O.2     1  UNL1       -0.4046
     15 N          59.0115   90.0625    5.9418 N.pl3   1  UNL1       -0.2589
     16 C          57.5812   90.4376    5.6895 C.3     1  UNL1        0.1167
     17 C          60.1059   90.6918    5.1318 C.3     1  UNL1        0.1167
     18 C          62.1050   91.2717   10.7648 C.3     1  UNL1        0.0047
     19 C          61.1413   90.2098   11.2050 C.3     1  UNL1        0.0241
     20 C          59.7608   90.5889   11.6524 C.3     1  UNL1        0.0047
     21 N          62.8964   90.0346   13.8862 N.pl3   1  UNL1       -0.2949
     22 H          61.9954   90.4086   14.0190 H       1  UNL1        0.1537
     23 C          64.1048   90.9003   14.0865 C.ar    1  UNL1        0.0775
     24 C          64.8717   91.4039   12.8998 C.ar    1  UNL1        0.0237
     25 C          66.0802   92.2696   13.1001 C.ar    1  UNL1        0.0821
     26 C          66.5218   92.6316   14.4872 C.ar    1  UNL1        0.1468
     27 F          67.7304   93.4974   14.6875 F       1  UNL1       -0.2039
     28 C          65.7550   92.1280   15.6739 C.ar    1  UNL1        0.0607
     29 C          64.5465   91.2623   15.4736 C.ar    1  UNL1        0.1557
     30 F          63.7797   90.7587   16.6603 F       1  UNL1       -0.2028
     31 C          66.8471   92.7733   11.9134 C.2     1  UNL1        0.2480
     32 O          68.1937   92.1967   11.5909 O.2     1  UNL1       -0.2701
     33 N          66.2673   93.8535   11.0492 N.am    1  UNL1       -0.3024
     34 H          65.3834   94.2320   11.2609 H       1  UNL1        0.1497
     35 C          67.0341   94.3572    9.8625 C.3     1  UNL1        0.0720
     36 C          67.5073   95.4972    9.0102 C.3     1  UNL1        0.0213
     37 C          67.8890   94.0897    8.6595 C.3     1  UNL1        0.0213
@<TRIPOS>BOND
     1    18    19    1
     2    19    20    1
     3    19     1    1
     4     1     2   ar
     5     2    10    1
     6    10    11   ar
     7    11    12   ar
     8    12    13   ar
     9    13    15    1
    10    15    16    1
    11    15    17    1
    12    13    14   ar
    13     2     3   ar
    14     3     4   ar
    15     4     5   ar
    16     5     6   ar
    17     6     7   ar
    18     7     8   ar
    19     8    21    1
    20    21    23    1
    21    23    24   ar
    22    24    25   ar
    23    25    31    1
    24    31    32    2
    25    31    33   am
    26    33    35    1
    27    35    36    1
    28    36    37    1
    29    25    26   ar
    30    26    27    1
    31    26    28   ar
    32    28    29   ar
    33    29    30    1
    34     8     9   ar
    35     9     1   ar
    36    14    10   ar
    37     9     4   ar
    38    29    23   ar
    39    37    35    1
    40    21    22    1
    41    33    34    1
@<TRIPOS>MOLECULE
*****
 37 41 0 0 0
SMALL
GASTEIGER

@<TRIPOS>ATOM
      1 C          62.9749   86.5861   12.2341 C.ar    1  UNL1        0.0040
      2 C          62.8188   85.5944   11.1196 C.ar    1  UNL1        0.0719
      3 C          62.2175   86.3079    9.9451 C.ar    1  UNL1        0.1049
      4 N          62.0020   87.7406   10.3338 N.ar    1  UNL1       -0.2242
      5 N          61.4400   88.9108    9.5823 N.ar    1  UNL1       -0.1422
      6 C          61.3461   90.2529   10.2455 C.ar    1  UNL1        0.2211
      7 N          61.8142   90.4248   11.6602 N.ar    1  UNL1       -0.2060
      8 C          62.3762   89.2546   12.4117 C.ar    1  UNL1        0.1515
      9 C          62.4701   87.9125   11.7485 C.ar    1  UNL1        0.1107
     10 C          63.1975   84.1439   11.1705 C.ar    1  UNL1        0.2525
     11 N          64.4442   83.5374   10.5979 N.ar    1  UNL1       -0.1057
     12 N          64.4132   82.0639   10.8765 N.ar    1  UNL1       -0.0921
     13 C          63.1472   81.7595   11.6214 C.ar    1  UNL1        0.3120
     14 O          62.3959   83.0450   11.8031 O.2     1  UNL1       -0.4046
     15 N          62.7095   80.4072   12.1005 N.pl3   1  UNL1       -0.2589
     16 C          62.2627   80.2230   13.5205 C.3     1  UNL1        0.1167
     17 C          62.7186   79.2391   11.1595 C.3     1  UNL1        0.1167
     18 C          63.0486   85.1171   14.3758 C.3     1  UNL1        0.0047
     19 C          63.5370   86.3013   13.5953 C.3     1  UNL1        0.0241
     20 C          64.5876   87.2007   14.1760 C.3     1  UNL1        0.0047
     21 N          62.8442   89.4265   13.8264 N.pl3   1  UNL1       -0.2949
     22 H          62.4692   88.8625   14.5409 H       1  UNL1        0.1537
     23 C          63.8837   90.4576   14.1524 C.ar    1  UNL1        0.0775
     24 C          64.7255   91.0457   13.0590 C.ar    1  UNL1        0.0237
     25 C          65.7650   92.0769   13.3850 C.ar    1  UNL1        0.0821
     26 C          65.9626   92.5199   14.8044 C.ar    1  UNL1        0.1468
     27 F          67.0021   93.5511   15.1304 F       1  UNL1       -0.2039
     28 C          65.1208   91.9318   15.8978 C.ar    1  UNL1        0.0607
     29 C          64.0813   90.9006   15.5718 C.ar    1  UNL1        0.1557
     30 F          63.2395   90.3126   16.6651 F       1  UNL1       -0.2028
     31 C          66.6068   92.6650   12.2916 C.2     1  UNL1        0.2480
     32 O          68.0507   92.2784   12.1664 O.2     1  UNL1       -0.2701
     33 N          66.0047   93.6398   11.3235 N.am    1  UNL1       -0.3024
     34 H          65.0570   93.8936   11.4057 H       1  UNL1        0.1497
     35 C          66.8465   94.2279   10.2301 C.3     1  UNL1        0.0720
     36 C          67.3085   95.4193    9.4445 C.3     1  UNL1        0.0213
     37 C          67.8425   94.0553    9.1219 C.3     1  UNL1        0.0213
@<TRIPOS>BOND
     1    18    19    1
     2    19    20    1
     3    19     1    1
     4     1     2   ar
     5     2    10    1
     6    10    11   ar
     7    11    12   ar
     8    12    13   ar
     9    13    15    1
    10    15    16    1
    11    15    17    1
    12    13    14   ar
    13     2     3   ar
    14     3     4   ar
    15     4     5   ar
    16     5     6   ar
    17     6     7   ar
    18     7     8   ar
    19     8    21    1
    20    21    23    1
    21    23    24   ar
    22    24    25   ar
    23    25    31    1
    24    31    32    2
    25    31    33   am
    26    33    35    1
    27    35    36    1
    28    36    37    1
    29    25    26   ar
    30    26    27    1
    31    26    28   ar
    32    28    29   ar
    33    29    30    1
    34     8     9   ar
    35     9     1   ar
    36    14    10   ar
    37     9     4   ar
    38    29    23   ar
    39    37    35    1
    40    21    22    1
    41    33    34    1
@<TRIPOS>MOLECULE
*****
 37 41 0 0 0
SMALL
GASTEIGER

@<TRIPOS>ATOM
      1 C          62.4532   87.5571   11.5993 C.ar    1  UNL1        0.0040
      2 C          62.3928   86.2256   10.9112 C.ar    1  UNL1        0.0719
      3 C          63.0220   85.2076   11.8155 C.ar    1  UNL1        0.1049
      4 N          63.4712   85.9099   13.0625 N.ar    1  UNL1       -0.2242
      5 N          64.1549   85.4147   14.3023 N.ar    1  UNL1       -0.1422
      6 C          64.4871   86.3717   15.4086 C.ar    1  UNL1        0.2211
      7 N          64.1356   87.8238   15.2750 N.ar    1  UNL1       -0.2060
      8 C          63.4519   88.3189   14.0351 C.ar    1  UNL1        0.1515
      9 C          63.1197   87.3620   12.9288 C.ar    1  UNL1        0.1107
     10 C          61.8063   85.9590    9.5566 C.ar    1  UNL1        0.2525
     11 N          60.4573   86.4057    9.0764 N.ar    1  UNL1       -0.1057
     12 N          60.2830   85.9216    7.6674 N.ar    1  UNL1       -0.0921
     13 C          61.5243   85.1756    7.2767 C.ar    1  UNL1        0.3120
     14 O          62.4657   85.1987    8.4443 O.2     1  UNL1       -0.4046
     15 N          61.7794   84.5215    5.9513 N.pl3   1  UNL1       -0.2589
     16 C          60.7220   83.6632    5.3225 C.3     1  UNL1        0.1167
     17 C          63.0920   84.7255    5.2545 C.3     1  UNL1        0.1167
     18 C          60.5170   89.2648   11.3077 C.3     1  UNL1        0.0047
     19 C          61.9377   88.8557   11.0536 C.3     1  UNL1        0.0241
     20 C          62.8426   89.7453   10.2539 C.3     1  UNL1        0.0047
     21 N          63.1004   89.7710   13.9015 N.pl3   1  UNL1       -0.2949
     22 H          62.1808   90.0356   13.6702 H       1  UNL1        0.1537
     23 C          64.1500   90.8200   14.1202 C.ar    1  UNL1        0.0775
     24 C          64.8730   91.4136   12.9476 C.ar    1  UNL1        0.0237
     25 C          65.9227   92.4625   13.1663 C.ar    1  UNL1        0.0821
     26 C          66.2494   92.9179   14.5576 C.ar    1  UNL1        0.1468
     27 F          67.2991   93.9669   14.7763 F       1  UNL1       -0.2039
     28 C          65.5265   92.3244   15.7302 C.ar    1  UNL1        0.0607
     29 C          64.4768   91.2754   15.5115 C.ar    1  UNL1        0.1557
     30 F          63.7539   90.6818   16.6842 F       1  UNL1       -0.2028
     31 C          66.6457   93.0561   11.9936 C.2     1  UNL1        0.2480
     32 O          67.8895   92.4017   11.4699 O.2     1  UNL1       -0.2701
     33 N          66.1247   94.3042   11.3448 N.am    1  UNL1       -0.3024
     34 H          65.3082   94.7337   11.6886 H       1  UNL1        0.1497
     35 C          66.8476   94.8978   10.1723 C.3     1  UNL1        0.0720
     36 C          67.3386   96.1003    9.4220 C.3     1  UNL1        0.0213
     37 C          67.6087   94.7235    8.8915 C.3     1  UNL1        0.0213
@<TRIPOS>BOND
     1    18    19    1
     2    19    20    1
     3    19     1    1
     4     1     2   ar
     5     2    10    1
     6    10    11   ar
     7    11    12   ar
     8    12    13   ar
     9    13    15    1
    10    15    16    1
    11    15    17    1
    12    13    14   ar
    13     2     3   ar
    14     3     4   ar
    15     4     5   ar
    16     5     6   ar
    17     6     7   ar
    18     7     8   ar
    19     8    21    1
    20    21    23    1
    21    23    24   ar
    22    24    25   ar
    23    25    31    1
    24    31    32    2
    25    31    33   am
    26    33    35    1
    27    35    36    1
    28    36    37    1
    29    25    26   ar
    30    26    27    1
    31    26    28   ar
    32    28    29   ar
    33    29    30    1
    34     8     9   ar
    35     9     1   ar
    36    14    10   ar
    37     9     4   ar
    38    29    23   ar
    39    37    35    1
    40    21    22    1
    41    33    34    1
@<TRIPOS>MOLECULE
*****
 37 41 0 0 0
SMALL
GASTEIGER

@<TRIPOS>ATOM
      1 C          63.1460   84.7496   12.7282 C.ar    1  UNL1        0.0040
      2 C          62.6741   83.7821   11.6837 C.ar    1  UNL1        0.0719
      3 C          62.2077   84.5721   10.4970 C.ar    1  UNL1        0.1049
      4 N          62.3914   86.0280   10.8081 N.ar    1  UNL1       -0.2242
      5 N          62.1056   87.2679   10.0139 N.ar    1  UNL1       -0.1422
      6 C          62.3997   88.6175   10.5986 C.ar    1  UNL1        0.2211
      7 N          62.9795   88.7272   11.9777 N.ar    1  UNL1       -0.2060
      8 C          63.2654   87.4873   12.7719 C.ar    1  UNL1        0.1515
      9 C          62.9713   86.1377   12.1871 C.ar    1  UNL1        0.1107
     10 C          62.6693   82.2870   11.8046 C.ar    1  UNL1        0.2525
     11 N          62.4477   81.5050   13.0654 N.ar    1  UNL1       -0.1057
     12 N          62.5268   80.0461   12.7260 N.ar    1  UNL1       -0.0921
     13 C          62.7972   79.9263   11.2554 C.ar    1  UNL1        0.3120
     14 O          62.8853   81.3112   10.6860 O.2     1  UNL1       -0.4046
     15 N          62.9523   78.6463   10.4889 N.pl3   1  UNL1       -0.2589
     16 C          63.4442   78.6755    9.0720 C.3     1  UNL1        0.1167
     17 C          62.6157   77.3372   11.1391 C.3     1  UNL1        0.1167
     18 C          65.1720   84.1931   14.2566 C.3     1  UNL1        0.0047
     19 C          63.6960   84.3920   14.0771 C.3     1  UNL1        0.0241
     20 C          62.7703   84.2331   15.2466 C.3     1  UNL1        0.0047
     21 N          63.8453   87.5970   14.1509 N.pl3   1  UNL1       -0.2949
     22 H          64.1104   86.7844   14.6395 H       1  UNL1        0.1537
     23 C          64.0212   88.9447   14.7855 C.ar    1  UNL1        0.0775
     24 C          64.7043   90.0460   14.0301 C.ar    1  UNL1        0.0237
     25 C          64.8802   91.3937   14.6647 C.ar    1  UNL1        0.0821
     26 C          64.3731   91.6401   16.0548 C.ar    1  UNL1        0.1468
     27 F          64.5491   92.9879   16.6894 F       1  UNL1       -0.2039
     28 C          63.6901   90.5388   16.8102 C.ar    1  UNL1        0.0607
     29 C          63.5141   89.1911   16.1755 C.ar    1  UNL1        0.1557
     30 F          62.8311   88.0898   16.9309 F       1  UNL1       -0.2028
     31 C          65.5632   92.4950   13.9093 C.2     1  UNL1        0.2480
     32 O          66.5249   93.4043   14.6153 O.2     1  UNL1       -0.2701
     33 N          65.2846   92.6870   12.4480 N.am    1  UNL1       -0.3024
     34 H          64.6534   92.0902   11.9847 H       1  UNL1        0.1497
     35 C          65.9676   93.7883   11.6926 C.3     1  UNL1        0.0720
     36 C          66.4066   95.2194   11.5965 C.3     1  UNL1        0.0213
     37 C          66.7115   94.2647   10.4804 C.3     1  UNL1        0.0213
@<TRIPOS>BOND
     1    18    19    1
     2    19    20    1
     3    19     1    1
     4     1     2   ar
     5     2    10    1
     6    10    11   ar
     7    11    12   ar
     8    12    13   ar
     9    13    15    1
    10    15    16    1
    11    15    17    1
    12    13    14   ar
    13     2     3   ar
    14     3     4   ar
    15     4     5   ar
    16     5     6   ar
    17     6     7   ar
    18     7     8   ar
    19     8    21    1
    20    21    23    1
    21    23    24   ar
    22    24    25   ar
    23    25    31    1
    24    31    32    2
    25    31    33   am
    26    33    35    1
    27    35    36    1
    28    36    37    1
    29    25    26   ar
    30    26    27    1
    31    26    28   ar
    32    28    29   ar
    33    29    30    1
    34     8     9   ar
    35     9     1   ar
    36    14    10   ar
    37     9     4   ar
    38    29    23   ar
    39    37    35    1
    40    21    22    1
    41    33    34    1
@<TRIPOS>MOLECULE
*****
 37 41 0 0 0
SMALL
GASTEIGER

@<TRIPOS>ATOM
      1 C          62.9899   84.4177   13.3682 C.ar    1  UNL1        0.0040
      2 C          62.8956   83.1380   14.1451 C.ar    1  UNL1        0.0719
      3 C          63.0163   83.4709   15.6028 C.ar    1  UNL1        0.1049
      4 N          63.1851   84.9562   15.7267 N.ar    1  UNL1       -0.2242
      5 N          63.3516   85.8514   16.9186 N.ar    1  UNL1       -0.1422
      6 C          63.5018   87.3318   16.7295 C.ar    1  UNL1        0.2211
      7 N          63.4855   87.9170   15.3484 N.ar    1  UNL1       -0.2060
      8 C          63.3190   87.0218   14.1565 C.ar    1  UNL1        0.1515
      9 C          63.1688   85.5414   14.3456 C.ar    1  UNL1        0.1107
     10 C          62.7128   81.7664   13.5662 C.ar    1  UNL1        0.2525
     11 N          62.2599   80.5472   14.3133 N.ar    1  UNL1       -0.1057
     12 N          62.2179   79.4004   13.3473 N.ar    1  UNL1       -0.0921
     13 C          62.6449   79.9109   12.0030 C.ar    1  UNL1        0.3120
     14 O          62.9508   81.3732   12.1383 O.2     1  UNL1       -0.4046
     15 N          62.7480   79.1014   10.7445 N.pl3   1  UNL1       -0.2589
     16 C          62.8632   79.7902    9.4169 C.3     1  UNL1        0.1167
     17 C          62.7359   77.6030   10.8134 C.3     1  UNL1        0.1167
     18 C          63.9900   83.9481   11.0167 C.3     1  UNL1        0.0047
     19 C          62.9179   84.5504   11.8758 C.3     1  UNL1        0.0241
     20 C          61.7739   85.2853   11.2425 C.3     1  UNL1        0.0047
     21 N          63.3027   87.6069   12.7754 N.pl3   1  UNL1       -0.2949
     22 H          63.0302   87.0523   12.0090 H       1  UNL1        0.1537
     23 C          63.7015   89.0371   12.5621 C.ar    1  UNL1        0.0775
     24 C          64.5604   89.7352   13.5745 C.ar    1  UNL1        0.0237
     25 C          64.9592   91.1654   13.3611 C.ar    1  UNL1        0.0821
     26 C          64.4991   91.8975   12.1354 C.ar    1  UNL1        0.1468
     27 F          64.8980   93.3277   11.9221 F       1  UNL1       -0.2039
     28 C          63.6402   91.1994   11.1231 C.ar    1  UNL1        0.0607
     29 C          63.2414   89.7691   11.3364 C.ar    1  UNL1        0.1557
     30 F          62.3825   89.0711   10.3240 F       1  UNL1       -0.2028
     31 C          65.8182   91.8635   14.3735 C.2     1  UNL1        0.2480
     32 O          65.1901   92.5064   15.5744 O.2     1  UNL1       -0.2701
     33 N          67.3053   91.9187   14.1850 N.am    1  UNL1       -0.3024
     34 H          67.7175   91.4968   13.3968 H       1  UNL1        0.1497
     35 C          68.1642   92.6168   15.1973 C.3     1  UNL1        0.0720
     36 C          69.1946   92.5615   16.2860 C.3     1  UNL1        0.0213
     37 C          68.6216   93.8813   15.8620 C.3     1  UNL1        0.0213
@<TRIPOS>BOND
     1    18    19    1
     2    19    20    1
     3    19     1    1
     4     1     2   ar
     5     2    10    1
     6    10    11   ar
     7    11    12   ar
     8    12    13   ar
     9    13    15    1
    10    15    16    1
    11    15    17    1
    12    13    14   ar
    13     2     3   ar
    14     3     4   ar
    15     4     5   ar
    16     5     6   ar
    17     6     7   ar
    18     7     8   ar
    19     8    21    1
    20    21    23    1
    21    23    24   ar
    22    24    25   ar
    23    25    31    1
    24    31    32    2
    25    31    33   am
    26    33    35    1
    27    35    36    1
    28    36    37    1
    29    25    26   ar
    30    26    27    1
    31    26    28   ar
    32    28    29   ar
    33    29    30    1
    34     8     9   ar
    35     9     1   ar
    36    14    10   ar
    37     9     4   ar
    38    29    23   ar
    39    37    35    1
    40    21    22    1
    41    33    34    1
@<TRIPOS>MOLECULE
*****
 37 41 0 0 0
SMALL
GASTEIGER

@<TRIPOS>ATOM
      1 C          60.1646   94.6489   -2.4603 C.ar    1  UNL1        0.0040
      2 C          59.6716   94.3359   -3.8419 C.ar    1  UNL1        0.0719
      3 C          60.7617   94.6816   -4.8124 C.ar    1  UNL1        0.1049
      4 N          61.9285   95.2084   -4.0307 N.ar    1  UNL1       -0.2242
      5 N          63.2793   95.7038   -4.4547 N.ar    1  UNL1       -0.1422
      6 C          64.2610   96.1790   -3.4250 C.ar    1  UNL1        0.2211
      7 N          63.8920   96.1588   -1.9713 N.ar    1  UNL1       -0.2060
      8 C          62.5412   95.6634   -1.5472 C.ar    1  UNL1        0.1515
      9 C          61.5595   95.1882   -2.5769 C.ar    1  UNL1        0.1107
     10 C          58.3248   93.7754   -4.1916 C.ar    1  UNL1        0.2525
     11 N          57.1901   94.5320   -4.8160 N.ar    1  UNL1       -0.1057
     12 N          56.0403   93.5842   -4.9886 N.ar    1  UNL1       -0.0921
     13 C          56.4645   92.2419   -4.4707 C.ar    1  UNL1        0.3120
     14 O          57.8764   92.3601   -3.9782 O.2     1  UNL1       -0.4046
     15 N          55.6243   90.9994   -4.4493 N.pl3   1  UNL1       -0.2589
     16 C          54.9035   90.5599   -5.6891 C.3     1  UNL1        0.1167
     17 C          55.5049   90.1965   -3.1879 C.3     1  UNL1        0.1167
     18 C          59.2082   93.0781   -0.6250 C.3     1  UNL1        0.0047
     19 C          59.3975   94.4565   -1.1857 C.3     1  UNL1        0.0241
     20 C          58.8196   95.6424   -0.4718 C.3     1  UNL1        0.0047
     21 N          62.1721   95.6432   -0.0935 N.pl3   1  UNL1       -0.2949
     22 H          61.6752   96.3971    0.2988 H       1  UNL1        0.1537
     23 C          62.5603   94.4743    0.7627 C.ar    1  UNL1        0.0775
     24 C          61.5689   93.8852    1.7220 C.ar    1  UNL1        0.0237
     25 C          61.9570   92.7163    2.5781 C.ar    1  UNL1        0.0821
     26 C          63.3366   92.1365    2.4751 C.ar    1  UNL1        0.1468
     27 F          63.7247   90.9675    3.3313 F       1  UNL1       -0.2039
     28 C          64.3280   92.7255    1.5158 C.ar    1  UNL1        0.0607
     29 C          63.9398   93.8944    0.6596 C.ar    1  UNL1        0.1557
     30 F          64.9312   94.4834   -0.2996 F       1  UNL1       -0.2028
     31 C          60.9656   92.1273    3.5374 C.2     1  UNL1        0.2480
     32 O          61.4346   91.2288    4.6431 O.2     1  UNL1       -0.2701
     33 N          59.5052   92.4367    3.3909 N.am    1  UNL1       -0.3024
     34 H          59.1974   93.0265    2.6651 H       1  UNL1        0.1497
     35 C          58.5138   91.8477    4.3501 C.3     1  UNL1        0.0720
     36 C          57.0951   91.6582    4.7987 C.3     1  UNL1        0.0213
     37 C          58.2153   91.0171    5.5629 C.3     1  UNL1        0.0213
@<TRIPOS>BOND
     1    18    19    1
     2    19    20    1
     3    19     1    1
     4     1     2   ar
     5     2    10    1
     6    10    11   ar
     7    11    12   ar
     8    12    13   ar
     9    13    15    1
    10    15    16    1
    11    15    17    1
    12    13    14   ar
    13     2     3   ar
    14     3     4   ar
    15     4     5   ar
    16     5     6   ar
    17     6     7   ar
    18     7     8   ar
    19     8    21    1
    20    21    23    1
    21    23    24   ar
    22    24    25   ar
    23    25    31    1
    24    31    32    2
    25    31    33   am
    26    33    35    1
    27    35    36    1
    28    36    37    1
    29    25    26   ar
    30    26    27    1
    31    26    28   ar
    32    28    29   ar
    33    29    30    1
    34     8     9   ar
    35     9     1   ar
    36    14    10   ar
    37     9     4   ar
    38    29    23   ar
    39    37    35    1
    40    21    22    1
    41    33    34    1
@<TRIPOS>MOLECULE
*****
 37 41 0 0 0
SMALL
GASTEIGER

@<TRIPOS>ATOM
      1 C          62.3872   86.8435   11.3875 C.ar    1  UNL1        0.0040
      2 C          62.2220   85.5720   10.6090 C.ar    1  UNL1        0.0719
      3 C          61.2960   85.8480    9.4617 C.ar    1  UNL1        0.1049
      4 N          60.8889   87.2900    9.5310 N.ar    1  UNL1       -0.2242
      5 N          59.9913   88.1223    8.6642 N.ar    1  UNL1       -0.1422
      6 C          59.7681   89.5699    8.9876 C.ar    1  UNL1        0.2211
      7 N          60.4425   90.1852   10.1778 N.ar    1  UNL1       -0.2060
      8 C          61.3401   89.3529   11.0446 C.ar    1  UNL1        0.1515
      9 C          61.5633   87.9053   10.7213 C.ar    1  UNL1        0.1107
     10 C          62.8691   84.2556   10.9228 C.ar    1  UNL1        0.2525
     11 N          64.1102   83.7084   10.2824 N.ar    1  UNL1       -0.1057
     12 N          64.3969   82.3699   10.8959 N.ar    1  UNL1       -0.0921
     13 C          63.3330   82.0900   11.9155 C.ar    1  UNL1        0.3120
     14 O          62.3887   83.2554   11.9321 O.2     1  UNL1       -0.4046
     15 N          63.2311   80.8605   12.7687 N.pl3   1  UNL1       -0.2589
     16 C          62.5390   79.6379   12.2430 C.3     1  UNL1        0.1167
     17 C          63.8214   80.8535   14.1477 C.3     1  UNL1        0.1167
     18 C          63.7705   88.3767   12.9642 C.3     1  UNL1        0.0047
     19 C          63.2285   87.0219   12.6164 C.3     1  UNL1        0.0241
     20 C          63.5281   85.8456   13.4976 C.3     1  UNL1        0.0047
     21 N          62.0145   89.9681   12.2348 N.pl3   1  UNL1       -0.2949
     22 H          61.6732   89.7897   13.1409 H       1  UNL1        0.1537
     23 C          63.2090   90.8553   12.0446 C.ar    1  UNL1        0.0775
     24 C          64.0642   91.2240   13.2205 C.ar    1  UNL1        0.0237
     25 C          65.2587   92.1111   13.0303 C.ar    1  UNL1        0.0821
     26 C          65.5979   92.6296   11.6643 C.ar    1  UNL1        0.1468
     27 F          66.7925   93.5168   11.4741 F       1  UNL1       -0.2039
     28 C          64.7427   92.2610   10.4884 C.ar    1  UNL1        0.0607
     29 C          63.5482   91.3738   10.6786 C.ar    1  UNL1        0.1557
     30 F          62.6930   91.0051    9.5027 F       1  UNL1       -0.2028
     31 C          66.1140   92.4798   14.2062 C.2     1  UNL1        0.2480
     32 O          65.4905   92.6682   15.5574 O.2     1  UNL1       -0.2701
     33 N          67.5927   92.6602   14.0308 N.am    1  UNL1       -0.3024
     34 H          68.0019   92.5366   13.1440 H       1  UNL1        0.1497
     35 C          68.4480   93.0289   15.2066 C.3     1  UNL1        0.0720
     36 C          69.2616   92.6224   16.3994 C.3     1  UNL1        0.0213
     37 C          69.1158   94.0739   16.0503 C.3     1  UNL1        0.0213
@<TRIPOS>BOND
     1    18    19    1
     2    19    20    1
     3    19     1    1
     4     1     2   ar
     5     2    10    1
     6    10    11   ar
     7    11    12   ar
     8    12    13   ar
     9    13    15    1
    10    15    16    1
    11    15    17    1
    12    13    14   ar
    13     2     3   ar
    14     3     4   ar
    15     4     5   ar
    16     5     6   ar
    17     6     7   ar
    18     7     8   ar
    19     8    21    1
    20    21    23    1
    21    23    24   ar
    22    24    25   ar
    23    25    31    1
    24    31    32    2
    25    31    33   am
    26    33    35    1
    27    35    36    1
    28    36    37    1
    29    25    26   ar
    30    26    27    1
    31    26    28   ar
    32    28    29   ar
    33    29    30    1
    34     8     9   ar
    35     9     1   ar
    36    14    10   ar
    37     9     4   ar
    38    29    23   ar
    39    37    35    1
    40    21    22    1
    41    33    34    1
@<TRIPOS>MOLECULE
*****
 37 41 0 0 0
SMALL
GASTEIGER

@<TRIPOS>ATOM
      1 C          63.3012   84.4627   14.2401 C.ar    1  UNL1        0.0040
      2 C          62.5734   83.2445   14.7263 C.ar    1  UNL1        0.0719
      3 C          61.9846   83.5615   16.0689 C.ar    1  UNL1        0.1049
      4 N          62.3484   84.9756   16.4125 N.ar    1  UNL1       -0.2242
      5 N          62.0438   85.8280   17.6086 N.ar    1  UNL1       -0.1422
      6 C          62.5530   87.2374   17.6743 C.ar    1  UNL1        0.2211
      7 N          63.3667   87.7943   16.5440 N.ar    1  UNL1       -0.2060
      8 C          63.6713   86.9419   15.3479 C.ar    1  UNL1        0.1515
      9 C          63.1621   85.5325   15.2822 C.ar    1  UNL1        0.1107
     10 C          62.4553   81.9386   13.9978 C.ar    1  UNL1        0.2525
     11 N          61.9243   80.6564   14.5669 N.ar    1  UNL1       -0.1057
     12 N          61.9883   79.6110   13.4931 N.ar    1  UNL1       -0.0921
     13 C          62.5588   80.2471   12.2603 C.ar    1  UNL1        0.3120
     14 O          62.8474   81.6857   12.5722 O.2     1  UNL1       -0.4046
     15 N          62.7985   79.5646   10.9463 N.pl3   1  UNL1       -0.2589
     16 C          63.1787   80.3715    9.7403 C.3     1  UNL1        0.1167
     17 C          62.6581   78.0751   10.8382 C.3     1  UNL1        0.1167
     18 C          63.2994   84.9739   11.6927 C.3     1  UNL1        0.0047
     19 C          64.0386   84.5888   12.9399 C.3     1  UNL1        0.0241
     20 C          65.5151   84.3300   12.8869 C.3     1  UNL1        0.0047
     21 N          64.4850   87.4989   14.2176 N.pl3   1  UNL1       -0.2949
     22 H          65.4174   87.2085   14.0925 H       1  UNL1        0.1537
     23 C          63.8783   88.4982   13.2779 C.ar    1  UNL1        0.0775
     24 C          62.8984   88.0484   12.2350 C.ar    1  UNL1        0.0237
     25 C          62.2917   89.0478   11.2953 C.ar    1  UNL1        0.0821
     26 C          62.6647   90.4970   11.3985 C.ar    1  UNL1        0.1468
     27 F          62.0579   91.4964   10.4587 F       1  UNL1       -0.2039
     28 C          63.6445   90.9469   12.4414 C.ar    1  UNL1        0.0607
     29 C          64.2513   89.9475   13.3811 C.ar    1  UNL1        0.1557
     30 F          65.2311   90.3973   14.4240 F       1  UNL1       -0.2028
     31 C          61.3119   88.5980   10.2523 C.2     1  UNL1        0.2480
     32 O          60.1482   89.4723    9.8899 O.2     1  UNL1       -0.2701
     33 N          61.4958   87.2739    9.5719 N.am    1  UNL1       -0.3024
     34 H          62.2596   86.7001    9.8098 H       1  UNL1        0.1497
     35 C          60.5160   86.8241    8.5290 C.3     1  UNL1        0.0720
     36 C          60.1193   85.8629    7.4480 C.3     1  UNL1        0.0213
     37 C          59.2158   87.0062    7.8036 C.3     1  UNL1        0.0213
@<TRIPOS>BOND
     1    18    19    1
     2    19    20    1
     3    19     1    1
     4     1     2   ar
     5     2    10    1
     6    10    11   ar
     7    11    12   ar
     8    12    13   ar
     9    13    15    1
    10    15    16    1
    11    15    17    1
    12    13    14   ar
    13     2     3   ar
    14     3     4   ar
    15     4     5   ar
    16     5     6   ar
    17     6     7   ar
    18     7     8   ar
    19     8    21    1
    20    21    23    1
    21    23    24   ar
    22    24    25   ar
    23    25    31    1
    24    31    32    2
    25    31    33   am
    26    33    35    1
    27    35    36    1
    28    36    37    1
    29    25    26   ar
    30    26    27    1
    31    26    28   ar
    32    28    29   ar
    33    29    30    1
    34     8     9   ar
    35     9     1   ar
    36    14    10   ar
    37     9     4   ar
    38    29    23   ar
    39    37    35    1
    40    21    22    1
    41    33    34    1
