@<TRIPOS>MOLECULE
*****
 11 12 0 0 0
SMALL
GASTEIGER

@<TRIPOS>ATOM
      1 C          66.7461   91.5817   14.7082 C.ar    1  UNL1        0.0222
      2 C          65.2657   91.3595   14.8026 C.ar    1  UNL1        0.0990
      3 N          64.3869   91.6503   13.6222 N.ar    1  UNL1       -0.2408
      4 C          64.9886   92.1633   12.3476 C.ar    1  UNL1        0.1163
      5 C          66.4690   92.3855   12.2532 C.ar    1  UNL1        0.0846
      6 C          67.3478   92.0946   13.4336 C.ar    1  UNL1        0.0207
      7 N          67.0707   92.8985   10.9785 N.ar    1  UNL1       -0.2849
      8 C          66.8235   94.2454   10.3664 C.ar    1  UNL1        0.1023
      9 C          67.6253   94.3340    9.1017 C.ar    1  UNL1        0.1196
     10 N          68.3680   93.0418    8.9323 N.ar    1  UNL1       -0.2220
     11 C          68.0252   92.1546   10.0922 C.ar    1  UNL1        0.1829
@<TRIPOS>BOND
     1     1     2   ar
     2     2     3   ar
     3     3     4   ar
     4     4     5   ar
     5     5     7    1
     6     7     8   ar
     7     8     9   ar
     8     9    10   ar
     9    10    11   ar
    10     5     6   ar
    11     6     1   ar
    12    11     7   ar
@<TRIPOS>MOLECULE
*****
 11 12 0 0 0
SMALL
GASTEIGER

@<TRIPOS>ATOM
      1 C          63.2858   90.8851   11.5369 C.ar    1  UNL1        0.0222
      2 C          63.4379   90.7316   13.0212 C.ar    1  UNL1        0.0990
      3 N          64.5412   91.4497   13.7404 N.ar    1  UNL1       -0.2408
      4 C          65.4923   92.3213   12.9752 C.ar    1  UNL1        0.1163
      5 C          65.3402   92.4748   11.4908 C.ar    1  UNL1        0.0846
      6 C          64.2369   91.7567   10.7717 C.ar    1  UNL1        0.0207
      7 N          66.2913   93.3464   10.7255 N.ar    1  UNL1       -0.2849
      8 C          66.1587   94.8261   10.5178 C.ar    1  UNL1        0.1023
      9 C          67.3274   95.2856    9.6975 C.ar    1  UNL1        0.1196
     10 N          68.1824   94.0900    9.3984 N.ar    1  UNL1       -0.2220
     11 C          67.5421   92.8915   10.0337 C.ar    1  UNL1        0.1829
@<TRIPOS>BOND
     1     1     2   ar
     2     2     3   ar
     3     3     4   ar
     4     4     5   ar
     5     5     7    1
     6     7     8   ar
     7     8     9   ar
     8     9    10   ar
     9    10    11   ar
    10     5     6   ar
    11     6     1   ar
    12    11     7   ar
@<TRIPOS>MOLECULE
*****
 11 12 0 0 0
SMALL
GASTEIGER

@<TRIPOS>ATOM
      1 C          63.1183   84.2612   10.3943 C.ar    1  UNL1        0.0222
      2 C          64.0481   83.1011   10.1959 C.ar    1  UNL1        0.0990
      3 N          64.7214   82.4689   11.3778 N.ar    1  UNL1       -0.2408
      4 C          64.4648   82.9968   12.7582 C.ar    1  UNL1        0.1163
      5 C          63.5350   84.1569   12.9566 C.ar    1  UNL1        0.0846
      6 C          62.8617   84.7891   11.7746 C.ar    1  UNL1        0.0207
      7 N          63.2784   84.6850   14.3370 N.ar    1  UNL1       -0.2849
      8 C          64.1288   85.6769   15.0737 C.ar    1  UNL1        0.1023
      9 C          63.5024   85.9187   16.4150 C.ar    1  UNL1        0.1196
     10 N          62.2647   85.0762   16.5072 N.ar    1  UNL1       -0.2220
     11 C          62.1263   84.3138   15.2229 C.ar    1  UNL1        0.1829
@<TRIPOS>BOND
     1     1     2   ar
     2     2     3   ar
     3     3     4   ar
     4     4     5   ar
     5     5     7    1
     6     7     8   ar
     7     8     9   ar
     8     9    10   ar
     9    10    11   ar
    10     5     6   ar
    11     6     1   ar
    12    11     7   ar
@<TRIPOS>MOLECULE
*****
 11 12 0 0 0
SMALL
GASTEIGER

@<TRIPOS>ATOM
      1 C          67.4703   93.0431   16.2519 C.ar    1  UNL1        0.0222
      2 C          68.7232   93.1291   15.4317 C.ar    1  UNL1        0.0990
      3 N          68.7682   92.5142   14.0643 N.ar    1  UNL1       -0.2408
      4 C          67.5602   91.8132   13.5171 C.ar    1  UNL1        0.1163
      5 C          66.3073   91.7272   14.3373 C.ar    1  UNL1        0.0846
      6 C          66.2624   92.3421   15.7047 C.ar    1  UNL1        0.0207
      7 N          65.0993   91.0262   13.7901 N.ar    1  UNL1       -0.2849
      8 C          64.3131   91.4382   12.5809 C.ar    1  UNL1        0.1023
      9 C          63.1933   90.4568   12.3995 C.ar    1  UNL1        0.1196
     10 N          63.2875   89.4382   13.4966 N.ar    1  UNL1       -0.2220
     11 C          64.4654   89.7901   14.3560 C.ar    1  UNL1        0.1829
@<TRIPOS>BOND
     1     1     2   ar
     2     2     3   ar
     3     3     4   ar
     4     4     5   ar
     5     5     7    1
     6     7     8   ar
     7     8     9   ar
     8     9    10   ar
     9    10    11   ar
    10     5     6   ar
    11     6     1   ar
    12    11     7   ar
@<TRIPOS>MOLECULE
*****
 11 12 0 0 0
SMALL
GASTEIGER

@<TRIPOS>ATOM
      1 C          63.7228   88.5860   15.3770 C.ar    1  UNL1        0.0222
      2 C          63.1276   89.2843   16.5637 C.ar    1  UNL1        0.0990
      3 N          63.3766   90.7483   16.7752 N.ar    1  UNL1       -0.2408
      4 C          64.2207   91.5140   15.8000 C.ar    1  UNL1        0.1163
      5 C          64.8159   90.8158   14.6133 C.ar    1  UNL1        0.0846
      6 C          64.5669   89.3518   14.4019 C.ar    1  UNL1        0.0207
      7 N          65.6601   91.5815   13.6381 N.ar    1  UNL1       -0.2849
      8 C          65.1813   92.2171   12.3665 C.ar    1  UNL1        0.1023
      9 C          66.3565   92.8745   11.7057 C.ar    1  UNL1        0.1196
     10 N          67.5617   92.6452   12.5689 N.ar    1  UNL1       -0.2220
     11 C          67.1313   91.8461   13.7632 C.ar    1  UNL1        0.1829
@<TRIPOS>BOND
     1     1     2   ar
     2     2     3   ar
     3     3     4   ar
     4     4     5   ar
     5     5     7    1
     6     7     8   ar
     7     8     9   ar
     8     9    10   ar
     9    10    11   ar
    10     5     6   ar
    11     6     1   ar
    12    11     7   ar
@<TRIPOS>MOLECULE
*****
 11 12 0 0 0
SMALL
GASTEIGER

@<TRIPOS>ATOM
      1 C          68.2365   92.9934    9.2521 C.ar    1  UNL1        0.0222
      2 C          68.0083   94.4604    9.0377 C.ar    1  UNL1        0.0990
      3 N          67.0922   95.2184    9.9521 N.ar    1  UNL1       -0.2408
      4 C          66.4043   94.5095   11.0809 C.ar    1  UNL1        0.1163
      5 C          66.6325   93.0426   11.2953 C.ar    1  UNL1        0.0846
      6 C          67.5486   92.2846   10.3809 C.ar    1  UNL1        0.0207
      7 N          65.9446   92.3337   12.4242 N.ar    1  UNL1       -0.2849
      8 C          66.5602   91.9708   13.7430 C.ar    1  UNL1        0.1023
      9 C          65.5164   91.2760   14.5663 C.ar    1  UNL1        0.1196
     10 N          64.2557   91.2095   13.7562 N.ar    1  UNL1       -0.2220
     11 C          64.5203   91.8631   12.4323 C.ar    1  UNL1        0.1829
@<TRIPOS>BOND
     1     1     2   ar
     2     2     3   ar
     3     3     4   ar
     4     4     5   ar
     5     5     7    1
     6     7     8   ar
     7     8     9   ar
     8     9    10   ar
     9    10    11   ar
    10     5     6   ar
    11     6     1   ar
    12    11     7   ar
@<TRIPOS>MOLECULE
*****
 11 12 0 0 0
SMALL
GASTEIGER

@<TRIPOS>ATOM
      1 C          64.7700   85.8752   14.9226 C.ar    1  UNL1        0.0222
      2 C          63.8514   86.4067   15.9826 C.ar    1  UNL1        0.0990
      3 N          62.6242   85.6349   16.3675 N.ar    1  UNL1       -0.2408
      4 C          62.3154   84.3316   15.6922 C.ar    1  UNL1        0.1163
      5 C          63.2339   83.8001   14.6322 C.ar    1  UNL1        0.0846
      6 C          64.4612   84.5719   14.2473 C.ar    1  UNL1        0.0207
      7 N          62.9252   82.4967   13.9569 N.ar    1  UNL1       -0.2849
      8 C          61.8499   81.5299   14.3559 C.ar    1  UNL1        0.1023
      9 C          61.8977   80.3670   13.4097 C.ar    1  UNL1        0.1196
     10 N          63.0025   80.6151   12.4258 N.ar    1  UNL1       -0.2220
     11 C          63.6375   81.9312   12.7640 C.ar    1  UNL1        0.1829
@<TRIPOS>BOND
     1     1     2   ar
     2     2     3   ar
     3     3     4   ar
     4     4     5   ar
     5     5     7    1
     6     7     8   ar
     7     8     9   ar
     8     9    10   ar
     9    10    11   ar
    10     5     6   ar
    11     6     1   ar
    12    11     7   ar
@<TRIPOS>MOLECULE
*****
 11 12 0 0 0
SMALL
GASTEIGER

@<TRIPOS>ATOM
      1 C          63.4231   90.9680   11.7728 C.ar    1  UNL1        0.0222
      2 C          62.6933   89.9146   12.5522 C.ar    1  UNL1        0.0990
      3 N          63.1694   89.5300   13.9217 N.ar    1  UNL1       -0.2408
      4 C          64.3754   90.1989   14.5117 C.ar    1  UNL1        0.1163
      5 C          65.1053   91.2523   13.7322 C.ar    1  UNL1        0.0846
      6 C          64.6291   91.6369   12.3628 C.ar    1  UNL1        0.0207
      7 N          66.3114   91.9212   14.3222 N.ar    1  UNL1       -0.2849
      8 C          66.3727   92.6167   15.6498 C.ar    1  UNL1        0.1023
      9 C          67.7670   93.1374   15.8364 C.ar    1  UNL1        0.1196
     10 N          68.5674   92.7637   14.6239 N.ar    1  UNL1       -0.2220
     11 C          67.6677   92.0121   13.6882 C.ar    1  UNL1        0.1829
@<TRIPOS>BOND
     1     1     2   ar
     2     2     3   ar
     3     3     4   ar
     4     4     5   ar
     5     5     7    1
     6     7     8   ar
     7     8     9   ar
     8     9    10   ar
     9    10    11   ar
    10     5     6   ar
    11     6     1   ar
    12    11     7   ar
@<TRIPOS>MOLECULE
*****
 11 12 0 0 0
SMALL
GASTEIGER

@<TRIPOS>ATOM
      1 C          62.4020   90.3203   10.2687 C.ar    1  UNL1        0.0222
      2 C          61.8211   89.3605   11.2643 C.ar    1  UNL1        0.0990
      3 N          62.3215   89.3524   12.6784 N.ar    1  UNL1       -0.2408
      4 C          63.4028   90.3040   13.0968 C.ar    1  UNL1        0.1163
      5 C          63.9837   91.2638   12.1012 C.ar    1  UNL1        0.0846
      6 C          63.4833   91.2720   10.6871 C.ar    1  UNL1        0.0207
      7 N          65.0651   92.2155   12.5195 N.ar    1  UNL1       -0.2849
      8 C          65.7400   92.2496   13.8587 C.ar    1  UNL1        0.1023
      9 C          66.7534   93.3553   13.8391 C.ar    1  UNL1        0.1196
     10 N          66.7048   94.0046   12.4877 N.ar    1  UNL1       -0.2220
     11 C          65.6613   93.3002   11.6723 C.ar    1  UNL1        0.1829
@<TRIPOS>BOND
     1     1     2   ar
     2     2     3   ar
     3     3     4   ar
     4     4     5   ar
     5     5     7    1
     6     7     8   ar
     7     8     9   ar
     8     9    10   ar
     9    10    11   ar
    10     5     6   ar
    11     6     1   ar
    12    11     7   ar
