@<TRIPOS>MOLECULE
*****
 54 60 0 0 0
SMALL
GASTEIGER

@<TRIPOS>ATOM
      1 N          61.2631   85.6948    8.0525 N.3     1  UNL1       -0.1862
      2 C          62.1892   84.5985    8.4889 C.3     1  UNL1        0.1775
      3 C          62.8978   84.6957    9.8074 C.2     1  UNL1        0.2452
      4 O          63.8239   83.5993   10.2438 O.2     1  UNL1       -0.2732
      5 N          62.6804   85.8893   10.6895 N.am    1  UNL1       -0.2541
      6 C          63.3890   85.9865   12.0080 C.3     1  UNL1        0.1577
      7 C          63.1716   87.1800   12.8901 C.2     1  UNL1        0.2445
      8 O          63.8802   87.2773   14.2085 O.2     1  UNL1       -0.2731
      9 N          62.2455   88.2764   12.4537 N.am    1  UNL1       -0.2705
     10 C          61.5368   88.1792   11.1352 C.3     1  UNL1        0.1359
     11 C          61.7543   86.9856   10.2531 C.3     1  UNL1        0.1908
     12 N          61.0457   86.8883    8.9346 N.am    1  UNL1       -0.1863
     13 C          60.1196   87.9847    8.4983 C.2     1  UNL1        0.3191
     14 O          59.9021   89.1782    9.3803 O.2     1  UNL1       -0.2512
     15 N          59.4109   87.8875    7.1798 N.am    1  UNL1       -0.2836
     16 H          59.5537   87.1041    6.6008 H       1  UNL1        0.1513
     17 C          60.5545   85.5975    6.7341 C.3     1  UNL1        0.1188
     18 C          62.2444   84.3034    5.2444 C.2     1  UNL1       -0.0034
     19 C          60.8604   84.4645    5.7999 C.2     1  UNL1       -0.0071
     20 C          64.3150   84.8902   12.4444 C.3     1  UNL1        0.0556
     21 C          63.7577   83.6239   13.0239 C.ar    1  UNL1       -0.0198
     22 C          62.5692   83.6767   13.9375 C.ar    1  UNL1       -0.0011
     23 C          62.0119   82.4104   14.5171 C.ar    1  UNL1        0.0363
     24 C          62.6430   81.0913   14.1830 C.ar    1  UNL1        0.1337
     25 O          62.0856   79.8250   14.7625 O.3     1  UNL1       -0.5055
     26 C          63.8315   81.0385   13.2693 C.ar    1  UNL1        0.0363
     27 C          64.3889   82.3048   12.6898 C.ar    1  UNL1       -0.0011
     28 H          61.3432   79.8580   15.3333 H       1  UNL1        0.2922
     29 C          62.0280   89.4700   13.3358 C.3     1  UNL1        0.1217
     30 C          63.1836   90.3550   13.6985 C.ar    1  UNL1        0.0135
     31 C          63.6932   90.3827   15.1090 C.ar    1  UNL1       -0.0012
     32 C          64.8487   91.2677   15.4717 C.ar    1  UNL1       -0.0002
     33 C          65.4945   92.1250   14.4240 C.ar    1  UNL1        0.0016
     34 C          64.9849   92.0973   13.0134 C.ar    1  UNL1        0.0214
     35 C          65.4168   92.8263   11.7757 C.ar    1  UNL1        0.0721
     36 C          64.5283   92.3918   10.6480 C.ar    1  UNL1        0.0805
     37 N          63.5472   91.3943   11.1888 N.ar    1  UNL1       -0.3241
     38 C          62.4726   90.7007   10.4053 C.3     1  UNL1        0.1305
     39 C          63.8295   91.2123   12.6507 C.ar    1  UNL1        0.0577
     40 C          66.5402   93.8160   11.6821 C.2     1  UNL1        0.2507
     41 O          67.5461   93.9158   12.7903 O.2     1  UNL1       -0.2699
     42 N          66.6575   94.7059   10.4803 N.am    1  UNL1       -0.2710
     43 C          67.6096   95.7799   10.0447 C.3     1  UNL1        0.1247
     44 C          66.8233   95.9644    8.7807 C.3     1  UNL1        0.1500
     45 O          66.9406   96.8543    7.5789 O.3     1  UNL1       -0.3810
     46 C          65.8711   94.8904    9.2163 C.3     1  UNL1        0.1247
     47 H          67.7154   97.4296    7.6770 H       1  UNL1        0.2105
     48 C          58.4849   88.9838    6.7434 C.3     1  UNL1        0.1177
     49 C          58.9921   90.0886    5.8647 C.ar    1  UNL1       -0.0025
     50 C          60.4566   90.1894    5.5564 C.ar    1  UNL1       -0.0026
     51 C          60.9638   91.2943    4.6778 C.ar    1  UNL1       -0.0003
     52 C          60.0065   92.2983    4.1074 C.ar    1  UNL1       -0.0000
     53 C          58.5419   92.1976    4.4157 C.ar    1  UNL1       -0.0003
     54 C          58.0347   91.0927    5.2943 C.ar    1  UNL1       -0.0026
@<TRIPOS>BOND
     1    18    19    2
     2    19    17    1
     3    17     1    1
     4     1     2    1
     5     2     3    1
     6     3     4    2
     7     3     5   am
     8     5     6    1
     9     6    20    1
    10    20    21    1
    11    21    22   ar
    12    22    23   ar
    13    23    24   ar
    14    24    25    1
    15    24    26   ar
    16    26    27   ar
    17     6     7    1
    18     7     8    2
    19     7     9   am
    20     9    29    1
    21    29    30    1
    22    30    31   ar
    23    31    32   ar
    24    32    33   ar
    25    33    34   ar
    26    34    35   ar
    27    35    40    1
    28    40    41    2
    29    40    42   am
    30    42    43    1
    31    43    44    1
    32    44    45    1
    33    44    46    1
    34    35    36   ar
    35    36    37   ar
    36    37    38    1
    37    37    39   ar
    38     9    10    1
    39    11    10    1
    40    11    12    1
    41    12    13   am
    42    13    14    2
    43    13    15   am
    44    15    48    1
    45    48    49    1
    46    49    50   ar
    47    50    51   ar
    48    51    52   ar
    49    52    53   ar
    50    53    54   ar
    51    12     1    1
    52    54    49   ar
    53    11     5    1
    54    27    21   ar
    55    39    30   ar
    56    39    34   ar
    57    46    42    1
    58    25    28    1
    59    45    47    1
    60    15    16    1
@<TRIPOS>MOLECULE
*****
 54 60 0 0 0
SMALL
GASTEIGER

@<TRIPOS>ATOM
      1 N          62.7727   84.0705    9.6201 N.3     1  UNL1       -0.1862
      2 C          62.0718   84.1037    8.2943 C.3     1  UNL1        0.1775
      3 C          61.3434   85.3416    7.8618 C.2     1  UNL1        0.2452
      4 O          60.6425   85.3747    6.5360 O.2     1  UNL1       -0.2732
      5 N          61.3159   86.5463    8.7550 N.am    1  UNL1       -0.2541
      6 C          60.5875   87.7842    8.3225 C.3     1  UNL1        0.1577
      7 C          60.5601   88.9889    9.2157 C.2     1  UNL1        0.2445
      8 O          59.8317   90.2268    8.7832 O.2     1  UNL1       -0.2731
      9 N          61.2610   88.9558   10.5415 N.am    1  UNL1       -0.2705
     10 C          61.9894   87.7179   10.9740 C.3     1  UNL1        0.1359
     11 C          62.0169   86.5131   10.0807 C.3     1  UNL1        0.1908
     12 N          62.7453   85.2752   10.5132 N.am    1  UNL1       -0.1863
     13 C          63.4462   85.2421   11.8390 C.2     1  UNL1        0.3191
     14 O          63.4187   86.4468   12.7322 O.2     1  UNL1       -0.2512
     15 N          64.1746   84.0042   12.2716 N.am    1  UNL1       -0.2836
     16 H          64.1926   83.2135   11.6853 H       1  UNL1        0.1513
     17 C          63.5011   82.8326   10.0526 C.3     1  UNL1        0.1188
     18 C          62.7291   81.1456   11.8713 C.2     1  UNL1       -0.0034
     19 C          62.7302   81.6069   10.4440 C.2     1  UNL1       -0.0071
     20 C          59.8866   87.8173    6.9968 C.3     1  UNL1        0.0556
     21 C          59.6670   89.1258    6.2970 C.ar    1  UNL1       -0.0198
     22 C          60.8282   89.8555    5.6894 C.ar    1  UNL1       -0.0011
     23 C          60.6086   91.1640    4.9897 C.ar    1  UNL1        0.0363
     24 C          59.2279   91.7428    4.8975 C.ar    1  UNL1        0.1337
     25 O          59.0083   93.0512    4.1977 O.3     1  UNL1       -0.5055
     26 C          58.0666   91.0131    5.5051 C.ar    1  UNL1        0.0363
     27 C          58.2862   89.7046    6.2049 C.ar    1  UNL1       -0.0011
     28 H          59.7336   93.5071    3.8182 H       1  UNL1        0.2922
     29 C          61.2335   90.1605   11.4347 C.3     1  UNL1        0.1217
     30 C          62.4996   90.9137   11.7172 C.ar    1  UNL1        0.0135
     31 C          63.1820   91.6725   10.6179 C.ar    1  UNL1       -0.0012
     32 C          64.4481   92.4258   10.9004 C.ar    1  UNL1       -0.0002
     33 C          65.0316   92.4202   12.2822 C.ar    1  UNL1        0.0016
     34 C          64.3492   91.6614   13.3815 C.ar    1  UNL1        0.0214
     35 C          64.6861   91.4744   14.8311 C.ar    1  UNL1        0.0721
     36 C          63.6283   90.6056   15.4446 C.ar    1  UNL1        0.0805
     37 N          62.6377   90.2557   14.3741 N.ar    1  UNL1       -0.3241
     38 C          61.4160   89.4029   14.5481 C.3     1  UNL1        0.1305
     39 C          63.0832   90.9081   13.0990 C.ar    1  UNL1        0.0577
     40 C          65.8726   92.0544   15.5425 C.2     1  UNL1        0.2507
     41 O          65.7091   92.6544   16.9075 O.2     1  UNL1       -0.2699
     42 N          67.2225   92.0345   14.8888 N.am    1  UNL1       -0.2710
     43 C          68.5946   92.5020   15.2742 C.3     1  UNL1        0.1247
     44 C          69.1316   92.0062   13.9642 C.3     1  UNL1        0.1500
     45 O          70.4814   91.9862   13.3105 O.3     1  UNL1       -0.3810
     46 C          67.7594   91.5386   13.5788 C.3     1  UNL1        0.1247
     47 H          71.1325   92.3973   13.9004 H       1  UNL1        0.2105
     48 C          64.8755   83.9710   13.5973 C.3     1  UNL1        0.1177
     49 C          64.2613   84.6463   14.7875 C.ar    1  UNL1       -0.0025
     50 C          63.1217   83.9954   15.5139 C.ar    1  UNL1       -0.0026
     51 C          62.5075   84.6707   16.7041 C.ar    1  UNL1       -0.0003
     52 C          63.0328   85.9969   17.1680 C.ar    1  UNL1       -0.0000
     53 C          64.1725   86.6478   16.4417 C.ar    1  UNL1       -0.0003
     54 C          64.7867   85.9726   15.2514 C.ar    1  UNL1       -0.0026
@<TRIPOS>BOND
     1    18    19    2
     2    19    17    1
     3    17     1    1
     4     1     2    1
     5     2     3    1
     6     3     4    2
     7     3     5   am
     8     5     6    1
     9     6    20    1
    10    20    21    1
    11    21    22   ar
    12    22    23   ar
    13    23    24   ar
    14    24    25    1
    15    24    26   ar
    16    26    27   ar
    17     6     7    1
    18     7     8    2
    19     7     9   am
    20     9    29    1
    21    29    30    1
    22    30    31   ar
    23    31    32   ar
    24    32    33   ar
    25    33    34   ar
    26    34    35   ar
    27    35    40    1
    28    40    41    2
    29    40    42   am
    30    42    43    1
    31    43    44    1
    32    44    45    1
    33    44    46    1
    34    35    36   ar
    35    36    37   ar
    36    37    38    1
    37    37    39   ar
    38     9    10    1
    39    11    10    1
    40    11    12    1
    41    12    13   am
    42    13    14    2
    43    13    15   am
    44    15    48    1
    45    48    49    1
    46    49    50   ar
    47    50    51   ar
    48    51    52   ar
    49    52    53   ar
    50    53    54   ar
    51    12     1    1
    52    54    49   ar
    53    11     5    1
    54    27    21   ar
    55    39    30   ar
    56    39    34   ar
    57    46    42    1
    58    25    28    1
    59    45    47    1
    60    15    16    1
@<TRIPOS>MOLECULE
*****
 54 60 0 0 0
SMALL
GASTEIGER

@<TRIPOS>ATOM
      1 N          62.9463   84.0007    9.5833 N.3     1  UNL1       -0.1862
      2 C          62.2708   84.0580    8.2453 C.3     1  UNL1        0.1775
      3 C          61.4502   85.2563    7.8701 C.2     1  UNL1        0.2452
      4 O          60.7747   85.3135    6.5319 O.2     1  UNL1       -0.2732
      5 N          61.3052   86.3973    8.8328 N.am    1  UNL1       -0.2541
      6 C          60.4847   87.5956    8.4576 C.3     1  UNL1        0.1577
      7 C          60.3397   88.7366    9.4204 C.2     1  UNL1        0.2445
      8 O          59.5191   89.9349    9.0452 O.2     1  UNL1       -0.2731
      9 N          61.0152   88.6793   10.7585 N.am    1  UNL1       -0.2705
     10 C          61.8357   87.4810   11.1337 C.3     1  UNL1        0.1359
     11 C          61.9807   86.3400   10.1709 C.3     1  UNL1        0.1908
     12 N          62.8013   85.1417   10.5461 N.am    1  UNL1       -0.1863
     13 C          63.4768   85.0844   11.8842 C.2     1  UNL1        0.3191
     14 O          63.3318   86.2255   12.8470 O.2     1  UNL1       -0.2512
     15 N          64.2973   83.8861   12.2594 N.am    1  UNL1       -0.2836
     16 H          64.3925   83.1373   11.6275 H       1  UNL1        0.1513
     17 C          63.7668   82.8024    9.9585 C.3     1  UNL1        0.1188
     18 C          62.7881   81.1234   11.6828 C.2     1  UNL1       -0.0034
     19 C          63.0929   81.4973   10.2625 C.2     1  UNL1       -0.0071
     20 C          59.8092   87.6529    7.1196 C.3     1  UNL1        0.0556
     21 C          59.5643   88.9772    6.4591 C.ar    1  UNL1       -0.0198
     22 C          60.7152   89.7624    5.9035 C.ar    1  UNL1       -0.0011
     23 C          60.4704   91.0867    5.2430 C.ar    1  UNL1        0.0363
     24 C          59.0746   91.6258    5.1382 C.ar    1  UNL1        0.1337
     25 O          58.8297   92.9501    4.4777 O.3     1  UNL1       -0.5055
     26 C          57.9235   90.8406    5.6939 C.ar    1  UNL1        0.0363
     27 C          58.1684   89.5163    6.3543 C.ar    1  UNL1       -0.0011
     28 H          59.5486   93.4406    4.1306 H       1  UNL1        0.2922
     29 C          60.8702   89.8204   11.7213 C.3     1  UNL1        0.1217
     30 C          62.0388   90.2483   12.5587 C.ar    1  UNL1        0.0135
     31 C          62.0821   89.9036   14.0179 C.ar    1  UNL1       -0.0012
     32 C          63.2507   90.3314   14.8553 C.ar    1  UNL1       -0.0002
     33 C          64.3760   91.1040   14.2335 C.ar    1  UNL1        0.0016
     34 C          64.3328   91.4487   12.7743 C.ar    1  UNL1        0.0214
     35 C          65.2880   92.1945   11.8904 C.ar    1  UNL1        0.0721
     36 C          64.7098   92.2275   10.5067 C.ar    1  UNL1        0.0805
     37 N          63.3973   91.5022   10.5355 N.ar    1  UNL1       -0.3241
     38 C          62.4789   91.2945    9.3678 C.3     1  UNL1        0.1305
     39 C          63.1642   91.0209   11.9369 C.ar    1  UNL1        0.0577
     40 C          66.5926   92.8008   12.3156 C.2     1  UNL1        0.2507
     41 O          67.3372   93.7087   11.3822 O.2     1  UNL1       -0.2699
     42 N          67.1524   92.4991   13.6741 N.am    1  UNL1       -0.2710
     43 C          68.3848   92.9040   14.4272 C.3     1  UNL1        0.1247
     44 C          67.9441   92.0725   15.5954 C.3     1  UNL1        0.1500
     45 O          68.5039   91.7708   16.9539 O.3     1  UNL1       -0.3810
     46 C          66.7117   91.6676   14.8422 C.3     1  UNL1        0.1247
     47 H          69.3459   92.2388   17.0678 H       1  UNL1        0.2105
     48 C          64.9729   83.8289   13.5975 C.3     1  UNL1        0.1177
     49 C          64.3531   84.5119   14.7804 C.ar    1  UNL1       -0.0025
     50 C          63.2195   83.8591   15.5144 C.ar    1  UNL1       -0.0026
     51 C          62.5997   84.5421   16.6974 C.ar    1  UNL1       -0.0003
     52 C          63.1135   85.8779   17.1463 C.ar    1  UNL1       -0.0000
     53 C          64.2471   86.5308   16.4122 C.ar    1  UNL1       -0.0003
     54 C          64.8669   85.8478   15.2293 C.ar    1  UNL1       -0.0026
@<TRIPOS>BOND
     1    18    19    2
     2    19    17    1
     3    17     1    1
     4     1     2    1
     5     2     3    1
     6     3     4    2
     7     3     5   am
     8     5     6    1
     9     6    20    1
    10    20    21    1
    11    21    22   ar
    12    22    23   ar
    13    23    24   ar
    14    24    25    1
    15    24    26   ar
    16    26    27   ar
    17     6     7    1
    18     7     8    2
    19     7     9   am
    20     9    29    1
    21    29    30    1
    22    30    31   ar
    23    31    32   ar
    24    32    33   ar
    25    33    34   ar
    26    34    35   ar
    27    35    40    1
    28    40    41    2
    29    40    42   am
    30    42    43    1
    31    43    44    1
    32    44    45    1
    33    44    46    1
    34    35    36   ar
    35    36    37   ar
    36    37    38    1
    37    37    39   ar
    38     9    10    1
    39    11    10    1
    40    11    12    1
    41    12    13   am
    42    13    14    2
    43    13    15   am
    44    15    48    1
    45    48    49    1
    46    49    50   ar
    47    50    51   ar
    48    51    52   ar
    49    52    53   ar
    50    53    54   ar
    51    12     1    1
    52    54    49   ar
    53    11     5    1
    54    27    21   ar
    55    39    30   ar
    56    39    34   ar
    57    46    42    1
    58    25    28    1
    59    45    47    1
    60    15    16    1
