@<TRIPOS>MOLECULE
*****
 36 39 0 0 0
SMALL
GASTEIGER

@<TRIPOS>ATOM
      1 N          63.6020   90.4721   10.4436 N.am    1  UNL1       -0.3005
      2 C          62.2989   89.9020   10.9202 C.2     1  UNL1        0.2456
      3 O          61.3092   90.7809   11.6259 O.2     1  UNL1       -0.2702
      4 H          64.2516   89.8952    9.9804 H       1  UNL1        0.1497
      5 C          61.9855   88.4532   10.6910 C.ar    1  UNL1        0.0523
      6 C          62.5630   87.4082   11.5989 C.ar    1  UNL1        0.0002
      7 C          63.4540   87.8120   12.7361 C.3     1  UNL1        0.0328
      8 C          62.2497   85.9593   11.3697 C.ar    1  UNL1        0.0774
      9 N          61.3588   85.5554   10.2326 N.ar    1  UNL1       -0.2457
     10 C          60.7813   86.6004    9.3245 C.ar    1  UNL1        0.0814
     11 C          59.8904   86.1965    8.1874 C.ar    1  UNL1        0.0196
     12 C          59.3129   87.2415    7.2794 C.ar    1  UNL1        0.0082
     13 C          59.6262   88.6904    7.5086 C.ar    1  UNL1        0.0347
     14 BR         59.0486   89.7354    6.6006 Br      1  UNL1       -0.0490
     15 C          60.5171   89.0943    8.6458 C.ar    1  UNL1        0.0083
     16 C          61.0946   88.0493    9.5537 C.ar    1  UNL1        0.0222
     17 C          62.8273   84.9143   12.2778 C.ar    1  UNL1        0.0173
     18 C          63.8027   83.9096   11.7401 C.ar    1  UNL1        0.0015
     19 C          64.3802   82.8646   12.6481 C.ar    1  UNL1        0.0000
     20 C          63.9823   82.8244   14.0938 C.ar    1  UNL1        0.0000
     21 C          63.0069   83.8291   14.6315 C.ar    1  UNL1        0.0000
     22 C          62.4294   84.8740   13.7235 C.ar    1  UNL1        0.0015
     23 C          63.9153   91.9210   10.6728 C.3     1  UNL1        0.0945
     24 C          65.2114   92.3152   11.3168 C.3     1  UNL1        0.0504
     25 C          66.3995   94.2852   10.1094 C.ar    1  UNL1        0.1347
     26 C          67.5286   94.8016    9.2677 C.ar    1  UNL1        0.0366
     27 C          68.5987   93.8644    8.7916 C.ar    1  UNL1        0.0031
     28 C          68.5396   92.4109    9.1572 C.ar    1  UNL1       -0.0001
     29 C          67.4105   91.8945    9.9989 C.ar    1  UNL1       -0.0012
     30 C          66.3405   92.8316   10.4751 C.ar    1  UNL1        0.0135
     31 C          65.7024   96.5571   11.1595 C.3     1  UNL1        0.2525
     32 O          65.3295   95.2224   10.5856 O.3     1  UNL1       -0.4717
     33 C          65.3784   92.1932   12.8024 C.3     1  UNL1        0.0479
     34 C          66.5046   92.9049   13.4916 C.2     1  UNL1        0.0507
     35 O          66.2812   94.2644   14.0851 O.co2   1  UNL1       -0.5492
     36 O          67.8542   92.2574   13.5873 O.co2   1  UNL1       -0.5492
@<TRIPOS>UNITY_ATOM_ATTR
35 1
charge -1
@<TRIPOS>BOND
     1    31    32    1
     2    32    25    1
     3    25    26   ar
     4    26    27   ar
     5    27    28   ar
     6    28    29   ar
     7    29    30   ar
     8    30    24    1
     9    24    23    1
    10    23     1    1
    11     1     2   am
    12     2     3    2
    13     2     5    1
    14     5     6   ar
    15     6     7    1
    16     6     8   ar
    17     8    17    1
    18    17    18   ar
    19    18    19   ar
    20    19    20   ar
    21    20    21   ar
    22    21    22   ar
    23     8     9   ar
    24     9    10   ar
    25    10    11   ar
    26    11    12   ar
    27    12    13   ar
    28    13    14    1
    29    13    15   ar
    30    15    16   ar
    31    24    33    1
    32    33    34    1
    33    34    35   ar
    34    34    36   ar
    35    30    25   ar
    36    16     5   ar
    37    22    17   ar
    38    16    10   ar
    39     1     4    1
@<TRIPOS>MOLECULE
*****
 36 39 0 0 0
SMALL
GASTEIGER

@<TRIPOS>ATOM
      1 N          63.5167   90.6145   10.2430 N.am    1  UNL1       -0.3005
      2 C          62.2769   90.0215   10.8442 C.2     1  UNL1        0.2456
      3 O          61.3330   90.8881   11.6238 O.2     1  UNL1       -0.2702
      4 H          64.1362   90.0457    9.7313 H       1  UNL1        0.1497
      5 C          61.9813   88.5618   10.6659 C.ar    1  UNL1        0.0523
      6 C          62.5743   87.5559   11.6073 C.ar    1  UNL1        0.0002
      7 C          63.4631   88.0097   12.7273 C.3     1  UNL1        0.0328
      8 C          62.2786   86.0962   11.4290 C.ar    1  UNL1        0.0774
      9 N          61.3899   85.6423   10.3091 N.ar    1  UNL1       -0.2457
     10 C          60.7968   86.6482    9.3675 C.ar    1  UNL1        0.0814
     11 C          59.9081   86.1944    8.2477 C.ar    1  UNL1        0.0196
     12 C          59.3150   87.2003    7.3062 C.ar    1  UNL1        0.0082
     13 C          59.6107   88.6600    7.4846 C.ar    1  UNL1        0.0347
     14 BR         59.0176   89.6659    6.5430 Br      1  UNL1       -0.0490
     15 C          60.4994   89.1138    8.6044 C.ar    1  UNL1        0.0083
     16 C          61.0925   88.1080    9.5459 C.ar    1  UNL1        0.0222
     17 C          62.8718   85.0903   12.3705 C.ar    1  UNL1        0.0173
     18 C          62.4903   85.1047   13.8211 C.ar    1  UNL1        0.0015
     19 C          63.0834   84.0989   14.7626 C.ar    1  UNL1        0.0000
     20 C          64.0580   83.0785   14.2535 C.ar    1  UNL1        0.0000
     21 C          64.4394   83.0641   12.8029 C.ar    1  UNL1        0.0000
     22 C          63.8463   84.0699   11.8614 C.ar    1  UNL1        0.0015
     23 C          63.8123   92.0742   10.4214 C.3     1  UNL1        0.0945
     24 C          65.0786   92.5055   11.1000 C.3     1  UNL1        0.0504
     25 C          67.1202   93.4738    9.8177 C.ar    1  UNL1        0.1347
     26 C          67.8864   94.6532    9.2962 C.ar    1  UNL1        0.0366
     27 C          67.3772   96.0437    9.5354 C.ar    1  UNL1        0.0031
     28 C          66.1018   96.2548   10.2962 C.ar    1  UNL1       -0.0001
     29 C          65.3355   95.0754   10.8177 C.ar    1  UNL1       -0.0012
     30 C          65.8448   93.6849   10.5785 C.ar    1  UNL1        0.0135
     31 C          68.8268   91.8635    8.7022 C.3     1  UNL1        0.2525
     32 O          67.6295   92.0833    9.5785 O.3     1  UNL1       -0.4717
     33 C          65.5787   91.7574   12.3001 C.3     1  UNL1        0.0479
     34 C          66.5177   92.4236   13.2615 C.2     1  UNL1        0.0507
     35 O          68.0001   92.2757   13.0863 O.co2   1  UNL1       -0.5492
     36 O          65.9744   93.2378   14.3982 O.co2   1  UNL1       -0.5492
@<TRIPOS>UNITY_ATOM_ATTR
35 1
charge -1
@<TRIPOS>BOND
     1    31    32    1
     2    32    25    1
     3    25    26   ar
     4    26    27   ar
     5    27    28   ar
     6    28    29   ar
     7    29    30   ar
     8    30    24    1
     9    24    23    1
    10    23     1    1
    11     1     2   am
    12     2     3    2
    13     2     5    1
    14     5     6   ar
    15     6     7    1
    16     6     8   ar
    17     8    17    1
    18    17    18   ar
    19    18    19   ar
    20    19    20   ar
    21    20    21   ar
    22    21    22   ar
    23     8     9   ar
    24     9    10   ar
    25    10    11   ar
    26    11    12   ar
    27    12    13   ar
    28    13    14    1
    29    13    15   ar
    30    15    16   ar
    31    24    33    1
    32    33    34    1
    33    34    35   ar
    34    34    36   ar
    35    30    25   ar
    36    16     5   ar
    37    22    17   ar
    38    16    10   ar
    39     1     4    1
@<TRIPOS>MOLECULE
*****
 36 39 0 0 0
SMALL
GASTEIGER

@<TRIPOS>ATOM
      1 N          62.6137   88.7260   11.1765 N.am    1  UNL1       -0.3005
      2 C          62.3472   90.1401   11.6002 C.2     1  UNL1        0.2456
      3 O          60.9536   90.6915   11.5388 O.2     1  UNL1       -0.2702
      4 H          63.5283   88.3641   11.2168 H       1  UNL1        0.1497
      5 C          63.4744   91.0027   12.0854 C.ar    1  UNL1        0.0523
      6 C          64.1950   91.9042   11.1273 C.ar    1  UNL1        0.0002
      7 C          63.7884   91.9431    9.6839 C.3     1  UNL1        0.0328
      8 C          65.3222   92.7667   11.6125 C.ar    1  UNL1        0.0774
      9 N          65.7288   92.7278   13.0558 N.ar    1  UNL1       -0.2457
     10 C          65.0082   91.8263   14.0140 C.ar    1  UNL1        0.0814
     11 C          65.4148   91.7874   15.4573 C.ar    1  UNL1        0.0196
     12 C          64.6942   90.8859   16.4154 C.ar    1  UNL1        0.0082
     13 C          63.5670   90.0233   15.9302 C.ar    1  UNL1        0.0347
     14 BR         62.8464   89.1217   16.8884 Br      1  UNL1       -0.0490
     15 C          63.1604   90.0622   14.4869 C.ar    1  UNL1        0.0083
     16 C          63.8810   90.9637   13.5288 C.ar    1  UNL1        0.0222
     17 C          66.0427   93.6683   10.6543 C.ar    1  UNL1        0.0173
     18 C          65.6105   95.0962   10.4986 C.ar    1  UNL1        0.0015
     19 C          66.3311   95.9976    9.5405 C.ar    1  UNL1        0.0000
     20 C          67.4839   95.4712    8.7380 C.ar    1  UNL1        0.0000
     21 C          67.9161   94.0433    8.8937 C.ar    1  UNL1        0.0000
     22 C          67.1956   93.1419    9.8519 C.ar    1  UNL1        0.0015
     23 C          61.4865   87.8634   10.6913 C.3     1  UNL1        0.0945
     24 C          61.6975   86.3907   10.5006 C.3     1  UNL1        0.0504
     25 C          60.6631   85.9725    8.1543 C.ar    1  UNL1        0.1347
     26 C          60.7690   85.4031    6.7706 C.ar    1  UNL1        0.0366
     27 C          62.0154   84.6824    6.3496 C.ar    1  UNL1        0.0031
     28 C          63.1557   84.5312    7.3121 C.ar    1  UNL1       -0.0001
     29 C          63.0498   85.1006    8.6959 C.ar    1  UNL1       -0.0012
     30 C          61.8035   85.8213    9.1169 C.ar    1  UNL1        0.0135
     31 C          59.0083   87.9561    7.8767 C.3     1  UNL1        0.2525
     32 O          59.4167   86.6931    8.5753 O.3     1  UNL1       -0.4717
     33 C          61.8027   85.4873   11.6934 C.3     1  UNL1        0.0479
     34 C          63.0845   85.4154   12.4691 C.2     1  UNL1        0.0507
     35 O          63.9215   84.1716   12.4209 O.co2   1  UNL1       -0.5492
     36 O          63.5293   86.5873   13.2930 O.co2   1  UNL1       -0.5492
@<TRIPOS>UNITY_ATOM_ATTR
35 1
charge -1
@<TRIPOS>BOND
     1    31    32    1
     2    32    25    1
     3    25    26   ar
     4    26    27   ar
     5    27    28   ar
     6    28    29   ar
     7    29    30   ar
     8    30    24    1
     9    24    23    1
    10    23     1    1
    11     1     2   am
    12     2     3    2
    13     2     5    1
    14     5     6   ar
    15     6     7    1
    16     6     8   ar
    17     8    17    1
    18    17    18   ar
    19    18    19   ar
    20    19    20   ar
    21    20    21   ar
    22    21    22   ar
    23     8     9   ar
    24     9    10   ar
    25    10    11   ar
    26    11    12   ar
    27    12    13   ar
    28    13    14    1
    29    13    15   ar
    30    15    16   ar
    31    24    33    1
    32    33    34    1
    33    34    35   ar
    34    34    36   ar
    35    30    25   ar
    36    16     5   ar
    37    22    17   ar
    38    16    10   ar
    39     1     4    1
@<TRIPOS>MOLECULE
*****
 36 39 0 0 0
SMALL
GASTEIGER

@<TRIPOS>ATOM
      1 N          63.4203   90.2371   10.8945 N.am    1  UNL1       -0.3005
      2 C          62.1139   89.5575   11.1803 C.2     1  UNL1        0.2456
      3 O          61.0333   90.2899   11.9191 O.2     1  UNL1       -0.2702
      4 H          64.1295   89.7564   10.4096 H       1  UNL1        0.1497
      5 C          61.8883   88.1454   10.7274 C.ar    1  UNL1        0.0523
      6 C          62.5002   87.0068   11.4884 C.ar    1  UNL1        0.0002
      7 C          63.3378   87.2803   12.7024 C.3     1  UNL1        0.0328
      8 C          62.2745   85.5948   11.0355 C.ar    1  UNL1        0.0774
      9 N          61.4370   85.3213    9.8215 N.ar    1  UNL1       -0.2457
     10 C          60.8250   86.4599    9.0605 C.ar    1  UNL1        0.0814
     11 C          59.9875   86.1864    7.8465 C.ar    1  UNL1        0.0196
     12 C          59.3756   87.3250    7.0855 C.ar    1  UNL1        0.0082
     13 C          59.6013   88.7371    7.5385 C.ar    1  UNL1        0.0347
     14 BR         58.9893   89.8757    6.7774 Br      1  UNL1       -0.0490
     15 C          60.4388   89.0106    8.7524 C.ar    1  UNL1        0.0083
     16 C          61.0507   87.8720    9.5134 C.ar    1  UNL1        0.0222
     17 C          62.8864   84.4561   11.7965 C.ar    1  UNL1        0.0173
     18 C          62.5758   84.2744   13.2527 C.ar    1  UNL1        0.0015
     19 C          63.1877   83.1359   14.0137 C.ar    1  UNL1        0.0000
     20 C          64.1103   82.1790   13.3185 C.ar    1  UNL1        0.0000
     21 C          64.4209   82.3607   11.8624 C.ar    1  UNL1        0.0000
     22 C          63.8090   83.4993   11.1014 C.ar    1  UNL1        0.0015
     23 C          63.6460   91.6492   11.3474 C.3     1  UNL1        0.0945
     24 C          65.0416   92.1507   11.5723 C.3     1  UNL1        0.0504
     25 C          65.0234   91.5227   14.0933 C.ar    1  UNL1        0.1347
     26 C          65.5265   91.7393   15.4896 C.ar    1  UNL1        0.0366
     27 C          66.5510   92.8007   15.7615 C.ar    1  UNL1        0.0031
     28 C          67.0724   93.6454   14.6369 C.ar    1  UNL1       -0.0001
     29 C          66.5692   93.4287   13.2405 C.ar    1  UNL1       -0.0012
     30 C          65.5447   92.3674   12.9687 C.ar    1  UNL1        0.0135
     31 C          63.2167   89.8661   14.9546 C.3     1  UNL1        0.2525
     32 O          63.9989   90.4613   13.8215 O.3     1  UNL1       -0.4717
     33 C          65.9341   92.4356   10.4008 C.3     1  UNL1        0.0479
     34 C          66.4598   93.8227   10.1783 C.2     1  UNL1        0.0507
     35 O          67.9093   94.0324    9.8541 O.co2   1  UNL1       -0.5492
     36 O          65.5360   95.0001   10.2800 O.co2   1  UNL1       -0.5492
@<TRIPOS>UNITY_ATOM_ATTR
35 1
charge -1
@<TRIPOS>BOND
     1    31    32    1
     2    32    25    1
     3    25    26   ar
     4    26    27   ar
     5    27    28   ar
     6    28    29   ar
     7    29    30   ar
     8    30    24    1
     9    24    23    1
    10    23     1    1
    11     1     2   am
    12     2     3    2
    13     2     5    1
    14     5     6   ar
    15     6     7    1
    16     6     8   ar
    17     8    17    1
    18    17    18   ar
    19    18    19   ar
    20    19    20   ar
    21    20    21   ar
    22    21    22   ar
    23     8     9   ar
    24     9    10   ar
    25    10    11   ar
    26    11    12   ar
    27    12    13   ar
    28    13    14    1
    29    13    15   ar
    30    15    16   ar
    31    24    33    1
    32    33    34    1
    33    34    35   ar
    34    34    36   ar
    35    30    25   ar
    36    16     5   ar
    37    22    17   ar
    38    16    10   ar
    39     1     4    1
@<TRIPOS>MOLECULE
*****
 36 39 0 0 0
SMALL
GASTEIGER

@<TRIPOS>ATOM
      1 N          62.8526   88.2753   11.7491 N.am    1  UNL1       -0.3005
      2 C          62.5498   89.7436   11.6998 C.2     1  UNL1        0.2456
      3 O          61.2349   90.2204   11.1580 O.2     1  UNL1       -0.2702
      4 H          63.7157   87.9623   12.1047 H       1  UNL1        0.1497
      5 C          63.5620   90.7351   12.1921 C.ar    1  UNL1        0.0523
      6 C          64.2511   91.6481   11.2219 C.ar    1  UNL1        0.0002
      7 C          63.9281   91.5696    9.7591 C.3     1  UNL1        0.0328
      8 C          65.2633   92.6396   11.7143 C.ar    1  UNL1        0.0774
      9 N          65.5864   92.7180   13.1769 N.ar    1  UNL1       -0.2457
     10 C          64.8972   91.8050   14.1473 C.ar    1  UNL1        0.0814
     11 C          65.2203   91.8835   15.6100 C.ar    1  UNL1        0.0196
     12 C          64.5311   90.9705   16.5802 C.ar    1  UNL1        0.0082
     13 C          63.5189   89.9790   16.0878 C.ar    1  UNL1        0.0347
     14 BR         62.8298   89.0660   17.0582 Br      1  UNL1       -0.0490
     15 C          63.1959   89.9006   14.6252 C.ar    1  UNL1        0.0083
     16 C          63.8850   90.8135   13.6549 C.ar    1  UNL1        0.0222
     17 C          65.9525   93.5526   10.7439 C.ar    1  UNL1        0.0173
     18 C          65.4686   94.9612   10.5662 C.ar    1  UNL1        0.0015
     19 C          66.1577   95.8741    9.5958 C.ar    1  UNL1        0.0000
     20 C          67.3308   95.3784    8.8033 C.ar    1  UNL1        0.0000
     21 C          67.8147   93.9699    8.9810 C.ar    1  UNL1        0.0000
     22 C          67.1256   93.0569    9.9513 C.ar    1  UNL1        0.0015
     23 C          61.8404   87.2838   11.2567 C.3     1  UNL1        0.0945
     24 C          62.2325   86.2545   10.2385 C.3     1  UNL1        0.0504
     25 C          63.2963   84.8047   12.1137 C.ar    1  UNL1        0.1347
     26 C          64.0166   83.5611   12.5434 C.ar    1  UNL1        0.0366
     27 C          64.3935   82.5238   11.5275 C.ar    1  UNL1        0.0031
     28 C          64.0500   82.7300   10.0821 C.ar    1  UNL1       -0.0001
     29 C          63.3297   83.9736    9.6523 C.ar    1  UNL1       -0.0012
     30 C          62.9528   85.0110   10.6682 C.ar    1  UNL1        0.0135
     31 C          63.8158   86.1023   14.3038 C.3     1  UNL1        0.2525
     32 O          62.9195   85.8420   13.1295 O.3     1  UNL1       -0.4717
     33 C          61.9043   86.4688    8.7906 C.3     1  UNL1        0.0479
     34 C          60.4872   86.3409    8.3160 C.2     1  UNL1        0.0507
     35 O          60.1480   85.3764    7.2183 O.co2   1  UNL1       -0.5492
     36 O          59.4092   87.1775    8.9389 O.co2   1  UNL1       -0.5492
@<TRIPOS>UNITY_ATOM_ATTR
35 1
charge -1
@<TRIPOS>BOND
     1    31    32    1
     2    32    25    1
     3    25    26   ar
     4    26    27   ar
     5    27    28   ar
     6    28    29   ar
     7    29    30   ar
     8    30    24    1
     9    24    23    1
    10    23     1    1
    11     1     2   am
    12     2     3    2
    13     2     5    1
    14     5     6   ar
    15     6     7    1
    16     6     8   ar
    17     8    17    1
    18    17    18   ar
    19    18    19   ar
    20    19    20   ar
    21    20    21   ar
    22    21    22   ar
    23     8     9   ar
    24     9    10   ar
    25    10    11   ar
    26    11    12   ar
    27    12    13   ar
    28    13    14    1
    29    13    15   ar
    30    15    16   ar
    31    24    33    1
    32    33    34    1
    33    34    35   ar
    34    34    36   ar
    35    30    25   ar
    36    16     5   ar
    37    22    17   ar
    38    16    10   ar
    39     1     4    1
@<TRIPOS>MOLECULE
*****
 36 39 0 0 0
SMALL
GASTEIGER

@<TRIPOS>ATOM
      1 N          63.0936   89.6145   11.8090 N.am    1  UNL1       -0.3005
      2 C          61.7608   89.0142   11.4726 C.2     1  UNL1        0.2456
      3 O          60.5008   89.7741   11.7643 O.2     1  UNL1       -0.2702
      4 H          63.9206   89.1157   11.6175 H       1  UNL1        0.1497
      5 C          61.6879   87.6540   10.8444 C.ar    1  UNL1        0.0523
      6 C          62.3314   86.4800   11.5208 C.ar    1  UNL1        0.0002
      7 C          63.0478   86.6662   12.8255 C.3     1  UNL1        0.0328
      8 C          62.2585   85.1198   10.8926 C.ar    1  UNL1        0.0774
      9 N          61.5421   84.9336    9.5880 N.ar    1  UNL1       -0.2457
     10 C          60.8985   86.1077    8.9115 C.ar    1  UNL1        0.0814
     11 C          60.1821   85.9215    7.6069 C.ar    1  UNL1        0.0196
     12 C          59.5386   87.0954    6.9305 C.ar    1  UNL1        0.0082
     13 C          59.6115   88.4556    7.5587 C.ar    1  UNL1        0.0347
     14 BR         58.9679   89.6296    6.8822 Br      1  UNL1       -0.0490
     15 C          60.3279   88.6418    8.8633 C.ar    1  UNL1        0.0083
     16 C          60.9714   87.4678    9.5397 C.ar    1  UNL1        0.0222
     17 C          62.9021   83.9458   11.5692 C.ar    1  UNL1        0.0173
     18 C          62.3669   83.4492   12.8794 C.ar    1  UNL1        0.0015
     19 C          63.0105   82.2752   13.5559 C.ar    1  UNL1        0.0000
     20 C          64.1892   81.5979   12.9220 C.ar    1  UNL1        0.0000
     21 C          64.7244   82.0946   11.6117 C.ar    1  UNL1        0.0000
     22 C          64.0808   83.2685   10.9353 C.ar    1  UNL1        0.0015
     23 C          63.1665   90.9747   12.4372 C.3     1  UNL1        0.0945
     24 C          64.4710   91.4833   12.9754 C.3     1  UNL1        0.0504
     25 C          66.0315   93.5605   12.9785 C.ar    1  UNL1        0.1347
     26 C          66.7911   94.6157   12.2305 C.ar    1  UNL1        0.0366
     27 C          66.7496   94.6491   10.7314 C.ar    1  UNL1        0.0031
     28 C          65.9486   93.6272    9.9804 C.ar    1  UNL1       -0.0001
     29 C          65.1890   92.5719   10.7284 C.ar    1  UNL1       -0.0012
     30 C          65.2305   92.5385   12.2274 C.ar    1  UNL1        0.0135
     31 C          67.3918   93.4782   15.1904 C.3     1  UNL1        0.2525
     32 O          66.0730   93.5271   14.4775 O.3     1  UNL1       -0.4717
     33 C          65.0158   90.9367   14.2616 C.3     1  UNL1        0.0479
     34 C          64.0861   90.6179   15.3947 C.2     1  UNL1        0.0507
     35 O          63.4900   89.2465   15.5126 O.co2   1  UNL1       -0.5492
     36 O          63.7524   91.6706   16.4099 O.co2   1  UNL1       -0.5492
@<TRIPOS>UNITY_ATOM_ATTR
35 1
charge -1
@<TRIPOS>BOND
     1    31    32    1
     2    32    25    1
     3    25    26   ar
     4    26    27   ar
     5    27    28   ar
     6    28    29   ar
     7    29    30   ar
     8    30    24    1
     9    24    23    1
    10    23     1    1
    11     1     2   am
    12     2     3    2
    13     2     5    1
    14     5     6   ar
    15     6     7    1
    16     6     8   ar
    17     8    17    1
    18    17    18   ar
    19    18    19   ar
    20    19    20   ar
    21    20    21   ar
    22    21    22   ar
    23     8     9   ar
    24     9    10   ar
    25    10    11   ar
    26    11    12   ar
    27    12    13   ar
    28    13    14    1
    29    13    15   ar
    30    15    16   ar
    31    24    33    1
    32    33    34    1
    33    34    35   ar
    34    34    36   ar
    35    30    25   ar
    36    16     5   ar
    37    22    17   ar
    38    16    10   ar
    39     1     4    1
@<TRIPOS>MOLECULE
*****
 36 39 0 0 0
SMALL
GASTEIGER

@<TRIPOS>ATOM
      1 N          62.5951   88.5127   11.7577 N.am    1  UNL1       -0.3005
      2 C          62.4083   90.0005   11.7167 C.2     1  UNL1        0.2456
      3 O          61.1207   90.5811   11.2117 O.2     1  UNL1       -0.2702
      4 H          63.4402   88.1316   12.0891 H       1  UNL1        0.1497
      5 C          63.5092   90.9076   12.1805 C.ar    1  UNL1        0.0523
      6 C          64.2225   91.7857   11.1956 C.ar    1  UNL1        0.0002
      7 C          63.8351   91.7567    9.7468 C.3     1  UNL1        0.0328
      8 C          65.3234   92.6929   11.6595 C.ar    1  UNL1        0.0774
      9 N          65.7109   92.7220   13.1083 N.ar    1  UNL1       -0.2457
     10 C          64.9975   91.8439   14.0932 C.ar    1  UNL1        0.0814
     11 C          65.3850   91.8729   15.5420 C.ar    1  UNL1        0.0196
     12 C          64.6717   90.9949   16.5269 C.ar    1  UNL1        0.0082
     13 C          63.5708   90.0877   16.0630 C.ar    1  UNL1        0.0347
     14 BR         62.8574   89.2096   17.0480 Br      1  UNL1       -0.0490
     15 C          63.1833   90.0586   14.6143 C.ar    1  UNL1        0.0083
     16 C          63.8967   90.9367   13.6294 C.ar    1  UNL1        0.0222
     17 C          66.0368   93.5710   10.6745 C.ar    1  UNL1        0.0173
     18 C          67.2111   93.0385    9.9081 C.ar    1  UNL1        0.0015
     19 C          67.9244   93.9166    8.9232 C.ar    1  UNL1        0.0000
     20 C          67.4634   95.3271    8.7047 C.ar    1  UNL1        0.0000
     21 C          66.2891   95.8596    9.4711 C.ar    1  UNL1        0.0000
     22 C          65.5758   94.9816   10.4560 C.ar    1  UNL1        0.0015
     23 C          61.4942   87.6055   11.2939 C.3     1  UNL1        0.0945
     24 C          61.7975   86.1812   10.9342 C.3     1  UNL1        0.0504
     25 C          62.8858   84.8697    8.9732 C.ar    1  UNL1        0.1347
     26 C          62.8808   84.4419    7.5355 C.ar    1  UNL1        0.0366
     27 C          61.7824   84.8976    6.6212 C.ar    1  UNL1        0.0031
     28 C          60.6891   85.7812    7.1446 C.ar    1  UNL1       -0.0001
     29 C          60.6941   86.2091    8.5823 C.ar    1  UNL1       -0.0012
     30 C          61.7925   85.7534    9.4966 C.ar    1  UNL1        0.0135
     31 C          64.2537   82.9490   10.0639 C.3     1  UNL1        0.2525
     32 O          63.9841   84.4140    9.8875 O.3     1  UNL1       -0.4717
     33 C          62.1059   85.1848   12.0122 C.3     1  UNL1        0.0479
     34 C          63.3128   85.3714   12.8831 C.2     1  UNL1        0.0507
     35 O          63.5377   86.6790   13.5830 O.co2   1  UNL1       -0.5492
     36 O          64.2947   84.2505   13.0543 O.co2   1  UNL1       -0.5492
@<TRIPOS>UNITY_ATOM_ATTR
35 1
charge -1
@<TRIPOS>BOND
     1    31    32    1
     2    32    25    1
     3    25    26   ar
     4    26    27   ar
     5    27    28   ar
     6    28    29   ar
     7    29    30   ar
     8    30    24    1
     9    24    23    1
    10    23     1    1
    11     1     2   am
    12     2     3    2
    13     2     5    1
    14     5     6   ar
    15     6     7    1
    16     6     8   ar
    17     8    17    1
    18    17    18   ar
    19    18    19   ar
    20    19    20   ar
    21    20    21   ar
    22    21    22   ar
    23     8     9   ar
    24     9    10   ar
    25    10    11   ar
    26    11    12   ar
    27    12    13   ar
    28    13    14    1
    29    13    15   ar
    30    15    16   ar
    31    24    33    1
    32    33    34    1
    33    34    35   ar
    34    34    36   ar
    35    30    25   ar
    36    16     5   ar
    37    22    17   ar
    38    16    10   ar
    39     1     4    1
@<TRIPOS>MOLECULE
*****
 36 39 0 0 0
SMALL
GASTEIGER

@<TRIPOS>ATOM
      1 N          64.5849   90.7945   12.3151 N.am    1  UNL1       -0.3005
      2 C          63.5139   89.9811   12.9796 C.2     1  UNL1        0.2456
      3 O          63.0256   90.3580   14.3469 O.2     1  UNL1       -0.2702
      4 H          64.9055   90.5471   11.4178 H       1  UNL1        0.1497
      5 C          62.9313   88.7909   12.2768 C.ar    1  UNL1        0.0523
      6 C          62.0339   88.9854   11.0908 C.ar    1  UNL1        0.0002
      7 C          61.7190   90.3701   10.6075 C.3     1  UNL1        0.0328
      8 C          61.4513   87.7951   10.3879 C.ar    1  UNL1        0.0774
      9 N          61.7661   86.4105   10.8712 N.ar    1  UNL1       -0.2457
     10 C          62.6636   86.2160   12.0573 C.ar    1  UNL1        0.0814
     11 C          62.9784   84.8313   12.5405 C.ar    1  UNL1        0.0196
     12 C          63.8759   84.6369   13.7265 C.ar    1  UNL1        0.0082
     13 C          64.4585   85.8271   14.4294 C.ar    1  UNL1        0.0347
     14 BR         65.3559   85.6326   15.6155 Br      1  UNL1       -0.0490
     15 C          64.1436   87.2118   13.9461 C.ar    1  UNL1        0.0083
     16 C          63.2462   87.4062   12.7601 C.ar    1  UNL1        0.0222
     17 C          60.5538   87.9896    9.2018 C.ar    1  UNL1        0.0173
     18 C          59.8120   86.8215    8.6231 C.ar    1  UNL1        0.0015
     19 C          58.9146   87.0160    7.4370 C.ar    1  UNL1        0.0000
     20 C          58.7590   88.3787    6.8297 C.ar    1  UNL1        0.0000
     21 C          59.5008   89.5469    7.4085 C.ar    1  UNL1        0.0000
     22 C          60.3983   89.3524    8.5945 C.ar    1  UNL1        0.0015
     23 C          65.1675   91.9847   13.0180 C.3     1  UNL1        0.0945
     24 C          66.6159   92.3292   12.8347 C.3     1  UNL1        0.0504
     25 C          66.8064   94.1646   11.0058 C.ar    1  UNL1        0.1347
     26 C          67.3061   94.6160    9.6655 C.ar    1  UNL1        0.0366
     27 C          68.1151   93.6833    8.8137 C.ar    1  UNL1        0.0031
     28 C          68.4244   92.2992    9.3022 C.ar    1  UNL1       -0.0001
     29 C          67.9246   91.8478   10.6426 C.ar    1  UNL1       -0.0012
     30 C          67.1156   92.7805   11.4944 C.ar    1  UNL1        0.0135
     31 C          65.9906   96.5678   11.5618 C.3     1  UNL1        0.2525
     32 O          65.9974   95.0974   11.8576 O.3     1  UNL1       -0.4717
     33 C          67.5644   92.2223   13.9918 C.3     1  UNL1        0.0479
     34 C          67.2832   92.9665   15.2634 C.2     1  UNL1        0.0507
     35 O          66.0768   92.6192   16.0845 O.co2   1  UNL1       -0.5492
     36 O          68.2082   94.0579   15.7139 O.co2   1  UNL1       -0.5492
@<TRIPOS>UNITY_ATOM_ATTR
35 1
charge -1
@<TRIPOS>BOND
     1    31    32    1
     2    32    25    1
     3    25    26   ar
     4    26    27   ar
     5    27    28   ar
     6    28    29   ar
     7    29    30   ar
     8    30    24    1
     9    24    23    1
    10    23     1    1
    11     1     2   am
    12     2     3    2
    13     2     5    1
    14     5     6   ar
    15     6     7    1
    16     6     8   ar
    17     8    17    1
    18    17    18   ar
    19    18    19   ar
    20    19    20   ar
    21    20    21   ar
    22    21    22   ar
    23     8     9   ar
    24     9    10   ar
    25    10    11   ar
    26    11    12   ar
    27    12    13   ar
    28    13    14    1
    29    13    15   ar
    30    15    16   ar
    31    24    33    1
    32    33    34    1
    33    34    35   ar
    34    34    36   ar
    35    30    25   ar
    36    16     5   ar
    37    22    17   ar
    38    16    10   ar
    39     1     4    1
@<TRIPOS>MOLECULE
*****
 36 39 0 0 0
SMALL
GASTEIGER

@<TRIPOS>ATOM
      1 N          63.1020   88.2830   11.9502 N.am    1  UNL1       -0.3005
      2 C          62.7781   89.7338   11.7489 C.2     1  UNL1        0.2456
      3 O          61.5126   90.1294   11.0475 O.2     1  UNL1       -0.2702
      4 H          63.9326   88.0233   12.4105 H       1  UNL1        0.1497
      5 C          63.7198   90.7888   12.2490 C.ar    1  UNL1        0.0523
      6 C          64.3875   91.7186   11.2797 C.ar    1  UNL1        0.0002
      7 C          64.1136   91.5934    9.8102 C.3     1  UNL1        0.0328
      8 C          65.3292   92.7737   11.7799 C.ar    1  UNL1        0.0774
      9 N          65.6031   92.8990   13.2493 N.ar    1  UNL1       -0.2457
     10 C          64.9353   91.9691   14.2187 C.ar    1  UNL1        0.0814
     11 C          65.2092   92.0944   15.6881 C.ar    1  UNL1        0.0196
     12 C          64.5415   91.1646   16.6574 C.ar    1  UNL1        0.0082
     13 C          63.5998   90.1095   16.1572 C.ar    1  UNL1        0.0347
     14 BR         62.9321   89.1797   17.1266 Br      1  UNL1       -0.0490
     15 C          63.3259   89.9843   14.6878 C.ar    1  UNL1        0.0083
     16 C          63.9937   90.9141   13.7185 C.ar    1  UNL1        0.0222
     17 C          65.9969   93.7035   10.8105 C.ar    1  UNL1        0.0173
     18 C          67.2032   93.2481   10.0440 C.ar    1  UNL1        0.0015
     19 C          67.8709   94.1779    9.0747 C.ar    1  UNL1        0.0000
     20 C          67.3323   95.5631    8.8719 C.ar    1  UNL1        0.0000
     21 C          66.1261   96.0185    9.6383 C.ar    1  UNL1        0.0000
     22 C          65.4584   95.0887   10.6077 C.ar    1  UNL1        0.0015
     23 C          62.1603   87.2279   11.4500 C.3     1  UNL1        0.0945
     24 C          62.5637   85.7837   11.4878 C.3     1  UNL1        0.0504
     25 C          62.9689   83.7108   13.0008 C.ar    1  UNL1        0.1347
     26 C          63.4980   83.1129   14.2706 C.ar    1  UNL1        0.0366
     27 C          64.1513   83.9900   15.2973 C.ar    1  UNL1        0.0031
     28 C          64.2754   85.4649   15.0541 C.ar    1  UNL1       -0.0001
     29 C          63.7462   86.0629   13.7843 C.ar    1  UNL1       -0.0012
     30 C          63.0929   85.1858   12.7576 C.ar    1  UNL1        0.0135
     31 C          62.9236   81.5080   11.6240 C.3     1  UNL1        0.2525
     32 O          62.3156   82.8338   11.9741 O.3     1  UNL1       -0.4717
     33 C          62.4379   84.9374   10.2558 C.3     1  UNL1        0.0479
     34 C          62.2252   85.5849    8.9196 C.2     1  UNL1        0.0507
     35 O          60.8974   86.1979    8.5860 O.co2   1  UNL1       -0.5492
     36 O          63.3403   85.6195    7.9169 O.co2   1  UNL1       -0.5492
@<TRIPOS>UNITY_ATOM_ATTR
35 1
charge -1
@<TRIPOS>BOND
     1    31    32    1
     2    32    25    1
     3    25    26   ar
     4    26    27   ar
     5    27    28   ar
     6    28    29   ar
     7    29    30   ar
     8    30    24    1
     9    24    23    1
    10    23     1    1
    11     1     2   am
    12     2     3    2
    13     2     5    1
    14     5     6   ar
    15     6     7    1
    16     6     8   ar
    17     8    17    1
    18    17    18   ar
    19    18    19   ar
    20    19    20   ar
    21    20    21   ar
    22    21    22   ar
    23     8     9   ar
    24     9    10   ar
    25    10    11   ar
    26    11    12   ar
    27    12    13   ar
    28    13    14    1
    29    13    15   ar
    30    15    16   ar
    31    24    33    1
    32    33    34    1
    33    34    35   ar
    34    34    36   ar
    35    30    25   ar
    36    16     5   ar
    37    22    17   ar
    38    16    10   ar
    39     1     4    1
