@<TRIPOS>MOLECULE
*****
 30 34 0 0 0
SMALL
GASTEIGER

@<TRIPOS>ATOM
      1 O          63.5662   89.3552   12.8306 O.2     1  UNL1       -0.2638
      2 C          62.7445   88.7263   11.7446 C.2     1  UNL1        0.3160
      3 N          62.1032   89.5860   10.6960 N.am    1  UNL1       -0.1720
      4 C          61.2815   88.9571    9.6100 C.ar    1  UNL1        0.0775
      5 C          60.6402   89.8169    8.5615 C.ar    1  UNL1        0.0167
      6 C          59.8185   89.1880    7.4755 C.ar    1  UNL1        0.0013
      7 C          59.6381   87.6994    7.4382 C.ar    1  UNL1        0.0002
      8 C          60.2793   86.8396    8.4868 C.ar    1  UNL1        0.0051
      9 C          61.1010   87.4685    9.5727 C.ar    1  UNL1        0.0623
     10 C          61.7423   86.6087   10.6214 C.2     1  UNL1        0.2419
     11 N          61.7414   85.1249   10.8411 N.2     1  UNL1       -0.0301
     12 C          62.5626   84.8368   12.0628 C.2     1  UNL1        0.3826
     13 N          63.0709   86.1425   12.5982 N.2     1  UNL1       -0.0254
     14 C          62.5640   87.2376   11.7073 C.2     1  UNL1        0.2907
     15 C          62.8286   83.4809   12.6467 C.ar    1  UNL1        0.1679
     16 C          63.0487   82.3048   11.7421 C.ar    1  UNL1        0.0711
     17 CL         63.0028   82.4845   10.2536 Cl      1  UNL1       -0.0818
     18 C          63.3147   80.9490   12.3260 C.ar    1  UNL1        0.0121
     19 C          63.3606   80.7693   13.8144 C.ar    1  UNL1        0.0072
     20 C          63.1405   81.9453   14.7190 C.ar    1  UNL1        0.0756
     21 C          62.8745   83.3011   14.1352 C.ar    1  UNL1        0.2982
     22 N          62.6544   84.4773   15.0398 N.pl3   1  UNL1        0.0812
     23 O          61.2598   84.8940   15.4023 O.2     1  UNL1        0.0415
     24 O          63.8289   85.2367   15.5818 O.co2   1  UNL1       -0.5760
     25 C          59.1772   90.0478    6.4269 C.ar    1  UNL1        0.0000
     26 C          60.0267   90.9139    5.5447 C.ar    1  UNL1        0.0000
     27 C          59.3855   91.7736    4.4961 C.ar    1  UNL1        0.0000
     28 C          57.8947   91.7672    4.3296 C.ar    1  UNL1        0.0000
     29 C          57.0452   90.9011    5.2117 C.ar    1  UNL1        0.0000
     30 C          57.6865   90.0413    6.2604 C.ar    1  UNL1        0.0000
@<TRIPOS>UNITY_ATOM_ATTR
22 1
charge 1
24 1
charge -1
@<TRIPOS>BOND
     1     1     2    2
     2     2     3    1
     3     3     4    2
     4     4     5   ar
     5     5     6   ar
     6     6    25    1
     7    25    26   ar
     8    26    27   ar
     9    27    28   ar
    10    28    29   ar
    11    29    30   ar
    12     6     7   ar
    13     7     8   ar
    14     8     9   ar
    15     9    10    2
    16    10    11    1
    17    11    12    2
    18    12    15    1
    19    15    16   ar
    20    16    17    1
    21    16    18   ar
    22    18    19   ar
    23    19    20   ar
    24    20    21   ar
    25    21    22    1
    26    22    23    2
    27    22    24    1
    28    12    13    1
    29    13    14    2
    30    14     2    1
    31     9     4   ar
    32    14    10    1
    33    30    25   ar
    34    21    15   ar
@<TRIPOS>MOLECULE
*****
 30 34 0 0 0
SMALL
GASTEIGER

@<TRIPOS>ATOM
      1 O          67.6195   94.2960   15.5883 O.2     1  UNL1       -0.2638
      2 C          66.7979   93.2637   14.8745 C.2     1  UNL1        0.3160
      3 N          66.2690   92.0768   15.6237 N.am    1  UNL1       -0.1720
      4 C          65.4474   91.0445   14.9099 C.ar    1  UNL1        0.0775
      5 C          64.9185   89.8575   15.6592 C.ar    1  UNL1        0.0167
      6 C          64.0970   88.8253   14.9454 C.ar    1  UNL1        0.0013
      7 C          63.8043   88.9801   13.4824 C.ar    1  UNL1        0.0002
      8 C          64.3332   90.1670   12.7331 C.ar    1  UNL1        0.0051
      9 C          65.1547   91.1992   13.4469 C.ar    1  UNL1        0.0623
     10 C          65.6836   92.3863   12.6977 C.2     1  UNL1        0.2419
     11 N          65.5594   92.8040   11.2624 N.2     1  UNL1       -0.0301
     12 C          66.3042   94.0944   11.0892 C.2     1  UNL1        0.3826
     13 N          66.8887   94.4742   12.4173 N.2     1  UNL1       -0.0254
     14 C          66.5052   93.4185   13.4115 C.2     1  UNL1        0.2907
     15 C          66.4406   94.8691    9.8119 C.ar    1  UNL1        0.1679
     16 C          65.5894   96.0814    9.5754 C.ar    1  UNL1        0.0711
     17 CL         64.6019   96.5190   10.6162 Cl      1  UNL1       -0.0818
     18 C          65.7258   96.8559    8.2982 C.ar    1  UNL1        0.0121
     19 C          66.7133   96.4183    7.2574 C.ar    1  UNL1        0.0072
     20 C          67.5645   95.2060    7.4938 C.ar    1  UNL1        0.0756
     21 C          67.4281   94.4314    8.7711 C.ar    1  UNL1        0.2982
     22 N          68.2793   93.2191    9.0076 N.pl3   1  UNL1        0.0812
     23 O          68.6968   92.8562   10.4018 O.2     1  UNL1        0.0415
     24 O          68.7128   92.3697    7.8498 O.co2   1  UNL1       -0.5760
     25 C          63.5681   87.6383   15.6946 C.ar    1  UNL1        0.0000
     26 C          62.9105   87.8262   17.0296 C.ar    1  UNL1        0.0000
     27 C          62.3816   86.6392   17.7789 C.ar    1  UNL1        0.0000
     28 C          62.5103   85.2643   17.1930 C.ar    1  UNL1        0.0000
     29 C          63.1678   85.0764   15.8580 C.ar    1  UNL1        0.0000
     30 C          63.6967   86.2634   15.1088 C.ar    1  UNL1        0.0000
@<TRIPOS>UNITY_ATOM_ATTR
22 1
charge 1
24 1
charge -1
@<TRIPOS>BOND
     1     1     2    2
     2     2     3    1
     3     3     4    2
     4     4     5   ar
     5     5     6   ar
     6     6    25    1
     7    25    26   ar
     8    26    27   ar
     9    27    28   ar
    10    28    29   ar
    11    29    30   ar
    12     6     7   ar
    13     7     8   ar
    14     8     9   ar
    15     9    10    2
    16    10    11    1
    17    11    12    2
    18    12    15    1
    19    15    16   ar
    20    16    17    1
    21    16    18   ar
    22    18    19   ar
    23    19    20   ar
    24    20    21   ar
    25    21    22    1
    26    22    23    2
    27    22    24    1
    28    12    13    1
    29    13    14    2
    30    14     2    1
    31     9     4   ar
    32    14    10    1
    33    30    25   ar
    34    21    15   ar
@<TRIPOS>MOLECULE
*****
 30 34 0 0 0
SMALL
GASTEIGER

@<TRIPOS>ATOM
      1 O          63.6796   89.3802   12.8801 O.2     1  UNL1       -0.2638
      2 C          62.8279   88.7459   11.8206 C.2     1  UNL1        0.3160
      3 N          62.2127   89.5929   10.7463 N.am    1  UNL1       -0.1720
      4 C          61.3610   88.9586    9.6868 C.ar    1  UNL1        0.0775
      5 C          60.7458   89.8055    8.6125 C.ar    1  UNL1        0.0167
      6 C          59.8941   89.1713    7.5531 C.ar    1  UNL1        0.0013
      7 C          59.6577   87.6901    7.5680 C.ar    1  UNL1        0.0002
      8 C          60.2728   86.8432    8.6424 C.ar    1  UNL1        0.0051
      9 C          61.1245   87.4774    9.7017 C.ar    1  UNL1        0.0623
     10 C          61.7397   86.6305   10.7762 C.2     1  UNL1        0.2419
     11 N          61.6845   85.1562   11.0469 N.2     1  UNL1       -0.0301
     12 C          62.5020   84.8793   12.2736 C.2     1  UNL1        0.3826
     13 N          63.0625   86.1824   12.7610 N.2     1  UNL1       -0.0254
     14 C          62.5914   87.2648   11.8356 C.2     1  UNL1        0.2907
     15 C          62.7207   83.5351   12.9025 C.ar    1  UNL1        0.1679
     16 C          62.3172   83.2994   14.3278 C.ar    1  UNL1        0.0711
     17 CL         61.6950   84.4078   15.1243 Cl      1  UNL1       -0.0818
     18 C          62.5358   81.9552   14.9567 C.ar    1  UNL1        0.0121
     19 C          63.1580   80.8469   14.1602 C.ar    1  UNL1        0.0072
     20 C          63.5615   81.0826   12.7349 C.ar    1  UNL1        0.0756
     21 C          63.3428   82.4267   12.1061 C.ar    1  UNL1        0.2982
     22 N          63.7464   82.6625   10.6807 N.pl3   1  UNL1        0.0812
     23 O          65.1073   83.2098   10.3672 O.2     1  UNL1        0.0415
     24 O          62.7889   82.3509    9.5688 O.co2   1  UNL1       -0.5760
     25 C          59.2789   90.0182    6.4787 C.ar    1  UNL1        0.0000
     26 C          60.1536   90.8362    5.5755 C.ar    1  UNL1        0.0000
     27 C          59.5385   91.6831    4.5011 C.ar    1  UNL1        0.0000
     28 C          58.0485   91.7120    4.3299 C.ar    1  UNL1        0.0000
     29 C          57.1738   90.8940    5.2331 C.ar    1  UNL1        0.0000
     30 C          57.7890   90.0471    6.3075 C.ar    1  UNL1        0.0000
@<TRIPOS>UNITY_ATOM_ATTR
22 1
charge 1
24 1
charge -1
@<TRIPOS>BOND
     1     1     2    2
     2     2     3    1
     3     3     4    2
     4     4     5   ar
     5     5     6   ar
     6     6    25    1
     7    25    26   ar
     8    26    27   ar
     9    27    28   ar
    10    28    29   ar
    11    29    30   ar
    12     6     7   ar
    13     7     8   ar
    14     8     9   ar
    15     9    10    2
    16    10    11    1
    17    11    12    2
    18    12    15    1
    19    15    16   ar
    20    16    17    1
    21    16    18   ar
    22    18    19   ar
    23    19    20   ar
    24    20    21   ar
    25    21    22    1
    26    22    23    2
    27    22    24    1
    28    12    13    1
    29    13    14    2
    30    14     2    1
    31     9     4   ar
    32    14    10    1
    33    30    25   ar
    34    21    15   ar
@<TRIPOS>MOLECULE
*****
 30 34 0 0 0
SMALL
GASTEIGER

@<TRIPOS>ATOM
      1 O          63.2053   88.7436   17.9138 O.2     1  UNL1       -0.2638
      2 C          63.3280   88.0602   16.5841 C.2     1  UNL1        0.3160
      3 N          62.9668   86.6106   16.4498 N.am    1  UNL1       -0.1720
      4 C          63.0895   85.9272   15.1201 C.ar    1  UNL1        0.0775
      5 C          62.7282   84.4776   14.9857 C.ar    1  UNL1        0.0167
      6 C          62.8510   83.7942   13.6561 C.ar    1  UNL1        0.0013
      7 C          63.3349   84.5605   12.4609 C.ar    1  UNL1        0.0002
      8 C          63.6962   86.0101   12.5952 C.ar    1  UNL1        0.0051
      9 C          63.5735   86.6934   13.9248 C.ar    1  UNL1        0.0623
     10 C          63.9347   88.1431   14.0593 C.2     1  UNL1        0.2419
     11 N          64.4368   89.1486   13.0659 N.2     1  UNL1       -0.0301
     12 C          64.6243   90.4535   13.7815 C.2     1  UNL1        0.3826
     13 N          64.2382   90.2544   15.2172 N.2     1  UNL1       -0.0254
     14 C          63.8120   88.8265   15.3889 C.2     1  UNL1        0.2907
     15 C          65.1124   91.7328   13.1690 C.ar    1  UNL1        0.1679
     16 C          64.6500   92.1328   11.7993 C.ar    1  UNL1        0.0711
     17 CL         63.6997   91.2534   11.0420 Cl      1  UNL1       -0.0818
     18 C          65.1380   93.4121   11.1868 C.ar    1  UNL1        0.0121
     19 C          66.0884   94.2914   11.9441 C.ar    1  UNL1        0.0072
     20 C          66.5507   93.8915   13.3138 C.ar    1  UNL1        0.0756
     21 C          66.0627   92.6122   13.9263 C.ar    1  UNL1        0.2982
     22 N          66.5251   92.2122   15.2961 N.pl3   1  UNL1        0.0812
     23 O          65.8198   92.7409   16.5098 O.2     1  UNL1        0.0415
     24 O          67.6926   91.2835   15.4522 O.co2   1  UNL1       -0.5760
     25 C          62.4897   82.3446   13.5217 C.ar    1  UNL1        0.0000
     26 C          63.2048   81.4828   12.5237 C.ar    1  UNL1        0.0000
     27 C          62.8436   80.0332   12.3892 C.ar    1  UNL1        0.0000
     28 C          61.7672   79.4453   13.2528 C.ar    1  UNL1        0.0000
     29 C          61.0521   80.3070   14.2508 C.ar    1  UNL1        0.0000
     30 C          61.4133   81.7567   14.3852 C.ar    1  UNL1        0.0000
@<TRIPOS>UNITY_ATOM_ATTR
22 1
charge 1
24 1
charge -1
@<TRIPOS>BOND
     1     1     2    2
     2     2     3    1
     3     3     4    2
     4     4     5   ar
     5     5     6   ar
     6     6    25    1
     7    25    26   ar
     8    26    27   ar
     9    27    28   ar
    10    28    29   ar
    11    29    30   ar
    12     6     7   ar
    13     7     8   ar
    14     8     9   ar
    15     9    10    2
    16    10    11    1
    17    11    12    2
    18    12    15    1
    19    15    16   ar
    20    16    17    1
    21    16    18   ar
    22    18    19   ar
    23    19    20   ar
    24    20    21   ar
    25    21    22    1
    26    22    23    2
    27    22    24    1
    28    12    13    1
    29    13    14    2
    30    14     2    1
    31     9     4   ar
    32    14    10    1
    33    30    25   ar
    34    21    15   ar
