@<TRIPOS>MOLECULE
*****
 23 26 0 0 0
SMALL
GASTEIGER

@<TRIPOS>ATOM
      1 C          61.5027   87.1465   10.8044 C.3     1  UNL1        0.1127
      2 C          62.2173   88.4255   11.1262 C.ar    1  UNL1        0.0104
      3 C          63.1991   88.7834   12.2023 C.ar    1  UNL1        0.0555
      4 CL         63.6229   87.7510   13.2043 Cl      1  UNL1       -0.0825
      5 C          63.7570   90.1739   12.2762 C.ar    1  UNL1        0.0111
      6 C          63.3332   91.2063   11.2740 C.ar    1  UNL1        0.0009
      7 C          62.3513   90.8484   10.1979 C.ar    1  UNL1        0.0013
      8 C          61.7934   89.4580   10.1240 C.ar    1  UNL1        0.0160
      9 C          60.8169   88.8171    9.1828 C.ar    1  UNL1        0.0804
     10 C          59.9515   89.0592    7.9818 C.ar    1  UNL1        0.1177
     11 N          59.2370   87.7801    7.6601 N.ar    1  UNL1       -0.2223
     12 C          59.6608   86.7476    8.6622 C.ar    1  UNL1        0.1788
     13 N          60.6373   87.3885    9.6033 N.ar    1  UNL1       -0.3069
     14 C          61.6311   85.8526   11.5523 C.3     1  UNL1        0.0564
     15 O          63.1220   84.8742    9.6628 O.3     1  UNL1       -0.3844
     16 C          62.5549   84.7836   11.0486 C.3     1  UNL1        0.1127
     17 H          62.7934   85.6782    9.2309 H       1  UNL1        0.2103
     18 C          62.9118   83.6240   11.9306 C.3     1  UNL1        0.0270
     19 C          63.4746   83.8682   13.2994 C.3     1  UNL1        0.0024
     20 C          63.8315   82.7086   14.1814 C.3     1  UNL1        0.0001
     21 C          63.6255   81.3048   13.6946 C.3     1  UNL1        0.0000
     22 C          63.0627   81.0606   12.3258 C.3     1  UNL1        0.0001
     23 C          62.7058   82.2202   11.4438 C.3     1  UNL1        0.0024
@<TRIPOS>BOND
     1    15    16    1
     2    16    14    1
     3    14     1    1
     4     1     2    1
     5     2     3   ar
     6     3     4    1
     7     3     5   ar
     8     5     6   ar
     9     6     7   ar
    10     7     8   ar
    11     8     9    1
    12     9    10   ar
    13    10    11   ar
    14    11    12   ar
    15    12    13   ar
    16    16    18    1
    17    18    19    1
    18    19    20    1
    19    20    21    1
    20    21    22    1
    21    22    23    1
    22    13     1    1
    23    23    18    1
    24     8     2   ar
    25    13     9   ar
    26    15    17    1
@<TRIPOS>MOLECULE
*****
 23 26 0 0 0
SMALL
GASTEIGER

@<TRIPOS>ATOM
      1 C          63.1370   86.5728   12.5281 C.3     1  UNL1        0.1127
      2 C          63.3645   88.0398   12.7432 C.ar    1  UNL1        0.0104
      3 C          64.0976   88.7958   13.8113 C.ar    1  UNL1        0.0555
      4 CL         64.7707   88.0539   14.9277 Cl      1  UNL1       -0.0825
      5 C          64.1576   90.2939   13.7630 C.ar    1  UNL1        0.0111
      6 C          63.4845   91.0358   12.6465 C.ar    1  UNL1        0.0009
      7 C          62.7514   90.2797   11.5784 C.ar    1  UNL1        0.0013
      8 C          62.6914   88.7817   11.6267 C.ar    1  UNL1        0.0160
      9 C          62.0479   87.7733   10.7217 C.ar    1  UNL1        0.0804
     10 C          61.2342   87.6086    9.4724 C.ar    1  UNL1        0.1177
     11 N          61.0068   86.1417    9.2574 N.ar    1  UNL1       -0.2223
     12 C          61.6799   85.3997   10.3738 C.ar    1  UNL1        0.1788
     13 N          62.3234   86.4081   11.2788 N.ar    1  UNL1       -0.3069
     14 C          63.6357   85.4650   13.4080 C.3     1  UNL1        0.0564
     15 O          61.7419   84.8794   15.0875 O.3     1  UNL1       -0.3844
     16 C          62.6703   84.4710   13.9823 C.3     1  UNL1        0.1127
     17 H          61.8947   85.8110   15.3104 H       1  UNL1        0.2103
     18 C          62.6331   83.0686   13.4514 C.3     1  UNL1        0.0270
     19 C          62.0030   81.9758   14.2632 C.3     1  UNL1        0.0024
     20 C          61.9659   80.5734   13.7323 C.3     1  UNL1        0.0001
     21 C          62.5588   80.2637   12.3898 C.3     1  UNL1        0.0000
     22 C          63.1889   81.3564   11.5780 C.3     1  UNL1        0.0001
     23 C          63.2261   82.7589   12.1088 C.3     1  UNL1        0.0024
@<TRIPOS>BOND
     1    15    16    1
     2    16    14    1
     3    14     1    1
     4     1     2    1
     5     2     3   ar
     6     3     4    1
     7     3     5   ar
     8     5     6   ar
     9     6     7   ar
    10     7     8   ar
    11     8     9    1
    12     9    10   ar
    13    10    11   ar
    14    11    12   ar
    15    12    13   ar
    16    16    18    1
    17    18    19    1
    18    19    20    1
    19    20    21    1
    20    21    22    1
    21    22    23    1
    22    13     1    1
    23    23    18    1
    24     8     2   ar
    25    13     9   ar
    26    15    17    1
@<TRIPOS>MOLECULE
*****
 23 26 0 0 0
SMALL
GASTEIGER

@<TRIPOS>ATOM
      1 C          63.4711   87.3737   12.9417 C.3     1  UNL1        0.1127
      2 C          63.4445   85.8761   13.0238 C.ar    1  UNL1        0.0104
      3 C          64.0035   84.9161   14.0317 C.ar    1  UNL1        0.0555
      4 CL         64.7499   85.4326   15.2258 Cl      1  UNL1       -0.0825
      5 C          63.8160   83.4395   13.8454 C.ar    1  UNL1        0.0111
      6 C          63.0696   82.9231   12.6513 C.ar    1  UNL1        0.0009
      7 C          62.5105   83.8831   11.6433 C.ar    1  UNL1        0.0013
      8 C          62.6980   85.3597   11.8296 C.ar    1  UNL1        0.0160
      9 C          62.2633   86.5380   11.0094 C.ar    1  UNL1        0.0804
     10 C          61.5333   86.9469    9.7645 C.ar    1  UNL1        0.1177
     11 N          61.5599   88.4444    9.6824 N.ar    1  UNL1       -0.2223
     12 C          62.3064   88.9610   10.8766 C.ar    1  UNL1        0.1788
     13 N          62.7411   87.7827   11.6967 N.ar    1  UNL1       -0.3069
     14 C          64.1147   88.2997   13.9308 C.3     1  UNL1        0.0564
     15 O          62.2957   90.0806   14.4500 O.3     1  UNL1       -0.3844
     16 C          63.6855   89.7350   14.0037 C.3     1  UNL1        0.1127
     17 H          61.8091   89.2661   14.6520 H       1  UNL1        0.2103
     18 C          64.6461   90.8250   13.6304 C.3     1  UNL1        0.0270
     19 C          64.4450   91.5999   12.3619 C.3     1  UNL1        0.0024
     20 C          65.4055   92.6898   11.9886 C.3     1  UNL1        0.0001
     21 C          66.5671   93.0049   12.8838 C.3     1  UNL1        0.0000
     22 C          66.7683   92.2300   14.1523 C.3     1  UNL1        0.0001
     23 C          65.8077   91.1400   14.5256 C.3     1  UNL1        0.0024
@<TRIPOS>BOND
     1    15    16    1
     2    16    14    1
     3    14     1    1
     4     1     2    1
     5     2     3   ar
     6     3     4    1
     7     3     5   ar
     8     5     6   ar
     9     6     7   ar
    10     7     8   ar
    11     8     9    1
    12     9    10   ar
    13    10    11   ar
    14    11    12   ar
    15    12    13   ar
    16    16    18    1
    17    18    19    1
    18    19    20    1
    19    20    21    1
    20    21    22    1
    21    22    23    1
    22    13     1    1
    23    23    18    1
    24     8     2   ar
    25    13     9   ar
    26    15    17    1
@<TRIPOS>MOLECULE
*****
 23 26 0 0 0
SMALL
GASTEIGER

@<TRIPOS>ATOM
      1 C          62.6606   86.2957   11.7746 C.3     1  UNL1        0.1127
      2 C          62.4304   87.6674   11.2127 C.ar    1  UNL1        0.0104
      3 C          61.7323   88.1395    9.9718 C.ar    1  UNL1        0.0555
      4 CL         61.1073   87.1454    9.0386 Cl      1  UNL1       -0.0825
      5 C          61.6594   89.6059    9.6642 C.ar    1  UNL1        0.0111
      6 C          62.2845   90.5999   10.5975 C.ar    1  UNL1        0.0009
      7 C          62.9826   90.1278   11.8384 C.ar    1  UNL1        0.0013
      8 C          63.0555   88.6615   12.1460 C.ar    1  UNL1        0.0160
      9 C          63.6721   87.9043   13.2847 C.ar    1  UNL1        0.0804
     10 C          64.4394   88.0507   14.5652 C.ar    1  UNL1        0.1177
     11 N          64.6696   86.6791   15.1270 N.ar    1  UNL1       -0.2223
     12 C          64.0445   85.6850   14.1938 C.ar    1  UNL1        0.1788
     13 N          63.4280   86.4422   13.0551 N.ar    1  UNL1       -0.3069
     14 C          62.2037   85.0044   11.1633 C.3     1  UNL1        0.0564
     15 O          64.3359   83.7962   10.3008 O.3     1  UNL1       -0.3844
     16 C          63.1114   83.8102   11.1671 C.3     1  UNL1        0.1127
     17 H          64.3918   84.6289    9.8065 H       1  UNL1        0.2103
     18 C          62.7946   82.6301   12.0370 C.3     1  UNL1        0.0270
     19 C          62.3129   82.8416   13.4417 C.3     1  UNL1        0.0024
     20 C          61.9962   81.6614   14.3117 C.3     1  UNL1        0.0001
     21 C          62.1610   80.2697   13.7770 C.3     1  UNL1        0.0000
     22 C          62.6427   80.0581   12.3722 C.3     1  UNL1        0.0001
     23 C          62.9595   81.2383   11.5022 C.3     1  UNL1        0.0024
@<TRIPOS>BOND
     1    15    16    1
     2    16    14    1
     3    14     1    1
     4     1     2    1
     5     2     3   ar
     6     3     4    1
     7     3     5   ar
     8     5     6   ar
     9     6     7   ar
    10     7     8   ar
    11     8     9    1
    12     9    10   ar
    13    10    11   ar
    14    11    12   ar
    15    12    13   ar
    16    16    18    1
    17    18    19    1
    18    19    20    1
    19    20    21    1
    20    21    22    1
    21    22    23    1
    22    13     1    1
    23    23    18    1
    24     8     2   ar
    25    13     9   ar
    26    15    17    1
@<TRIPOS>MOLECULE
*****
 23 26 0 0 0
SMALL
GASTEIGER

@<TRIPOS>ATOM
      1 C          61.9578   88.6284   11.1649 C.3     1  UNL1        0.1127
      2 C          62.4598   87.3110   11.6773 C.ar    1  UNL1        0.0104
      3 C          63.3381   86.9551   12.8400 C.ar    1  UNL1        0.0555
      4 CL         63.8773   88.0347   13.7307 Cl      1  UNL1       -0.0825
      5 C          63.6773   85.5194   13.1118 C.ar    1  UNL1        0.0111
      6 C          63.1381   84.4398   12.2210 C.ar    1  UNL1        0.0009
      7 C          62.2597   84.7957   11.0583 C.ar    1  UNL1        0.0013
      8 C          61.9205   86.2313   10.7865 C.ar    1  UNL1        0.0160
      9 C          61.0854   86.8814    9.7235 C.ar    1  UNL1        0.0804
     10 C          60.2360   86.6158    8.5160 C.ar    1  UNL1        0.1177
     11 N          59.7341   87.9332    8.0036 N.ar    1  UNL1       -0.2223
     12 C          60.2733   89.0130    8.8944 C.ar    1  UNL1        0.1788
     13 N          61.1084   88.3629    9.9574 N.ar    1  UNL1       -0.3069
     14 C          62.2534   89.9749   11.7561 C.3     1  UNL1        0.0564
     15 O          62.7597   91.3284    9.5970 O.3     1  UNL1       -0.3844
     16 C          63.1097   90.9518   11.0062 C.3     1  UNL1        0.1127
     17 H          61.9582   90.8544    9.3252 H       1  UNL1        0.2103
     18 C          64.3160   91.5521   11.6653 C.3     1  UNL1        0.0270
     19 C          65.2779   92.3758   10.8615 C.3     1  UNL1        0.0024
     20 C          66.4841   92.9761   11.5207 C.3     1  UNL1        0.0001
     21 C          66.7285   92.7527   12.9836 C.3     1  UNL1        0.0000
     22 C          65.7666   91.9289   13.7875 C.3     1  UNL1        0.0001
     23 C          64.5603   91.3286   13.1284 C.3     1  UNL1        0.0024
@<TRIPOS>BOND
     1    15    16    1
     2    16    14    1
     3    14     1    1
     4     1     2    1
     5     2     3   ar
     6     3     4    1
     7     3     5   ar
     8     5     6   ar
     9     6     7   ar
    10     7     8   ar
    11     8     9    1
    12     9    10   ar
    13    10    11   ar
    14    11    12   ar
    15    12    13   ar
    16    16    18    1
    17    18    19    1
    18    19    20    1
    19    20    21    1
    20    21    22    1
    21    22    23    1
    22    13     1    1
    23    23    18    1
    24     8     2   ar
    25    13     9   ar
    26    15    17    1
@<TRIPOS>MOLECULE
*****
 23 26 0 0 0
SMALL
GASTEIGER

@<TRIPOS>ATOM
      1 C          63.2667   88.2789   12.5193 C.3     1  UNL1        0.1127
      2 C          62.4565   87.8434   11.3343 C.ar    1  UNL1        0.0104
      3 C          61.8061   88.6153   10.2248 C.ar    1  UNL1        0.0555
      4 CL         61.9178   90.1106   10.1857 Cl      1  UNL1       -0.0825
      5 C          61.0440   87.8918    9.1543 C.ar    1  UNL1        0.0111
      6 C          60.9324   86.3966    9.1935 C.ar    1  UNL1        0.0009
      7 C          61.5828   85.6246   10.3030 C.ar    1  UNL1        0.0013
      8 C          62.3449   86.3481   11.3735 C.ar    1  UNL1        0.0160
      9 C          63.0860   85.8594   12.5826 C.ar    1  UNL1        0.0804
     10 C          63.4750   84.6332   13.3540 C.ar    1  UNL1        0.1177
     11 N          64.2851   85.0687   14.5389 N.ar    1  UNL1       -0.2223
     12 C          64.3968   86.5640   14.4998 C.ar    1  UNL1        0.1788
     13 N          63.6557   87.0527   13.2907 N.ar    1  UNL1       -0.3069
     14 C          63.6249   89.6924   12.8711 C.3     1  UNL1        0.0564
     15 O          62.3969   89.7520   15.1599 O.3     1  UNL1       -0.3844
     16 C          63.5583   90.1501   14.2980 C.3     1  UNL1        0.1127
     17 H          61.7847   89.2039   14.6445 H       1  UNL1        0.2103
     18 C          64.6530   91.0058   14.8630 C.3     1  UNL1        0.0270
     19 C          65.9563   91.1358   14.1320 C.3     1  UNL1        0.0024
     20 C          67.0511   91.9915   14.6970 C.3     1  UNL1        0.0001
     21 C          66.8425   92.7172   15.9931 C.3     1  UNL1        0.0000
     22 C          65.5392   92.5872   16.7242 C.3     1  UNL1        0.0001
     23 C          64.4444   91.7315   16.1591 C.3     1  UNL1        0.0024
@<TRIPOS>BOND
     1    15    16    1
     2    16    14    1
     3    14     1    1
     4     1     2    1
     5     2     3   ar
     6     3     4    1
     7     3     5   ar
     8     5     6   ar
     9     6     7   ar
    10     7     8   ar
    11     8     9    1
    12     9    10   ar
    13    10    11   ar
    14    11    12   ar
    15    12    13   ar
    16    16    18    1
    17    18    19    1
    18    19    20    1
    19    20    21    1
    20    21    22    1
    21    22    23    1
    22    13     1    1
    23    23    18    1
    24     8     2   ar
    25    13     9   ar
    26    15    17    1
@<TRIPOS>MOLECULE
*****
 23 26 0 0 0
SMALL
GASTEIGER

@<TRIPOS>ATOM
      1 C          63.2061   88.5544   12.2257 C.3     1  UNL1        0.1127
      2 C          63.4940   87.3282   13.0404 C.ar    1  UNL1        0.0104
      3 C          63.2255   85.8732   12.7935 C.ar    1  UNL1        0.0555
      4 CL         62.5464   85.4401   11.5282 Cl      1  UNL1       -0.0825
      5 C          63.6362   84.8514   13.8120 C.ar    1  UNL1        0.0111
      6 C          64.3153   85.2847   15.0773 C.ar    1  UNL1        0.0009
      7 C          64.5838   86.7397   15.3242 C.ar    1  UNL1        0.0013
      8 C          64.1731   87.7615   14.3057 C.ar    1  UNL1        0.0160
      9 C          64.3049   89.2553   14.2731 C.ar    1  UNL1        0.0804
     10 C          64.8061   90.4462   15.0349 C.ar    1  UNL1        0.1177
     11 N          64.5182   91.6723   14.2202 N.ar    1  UNL1       -0.2223
     12 C          63.8391   91.2392   12.9549 C.ar    1  UNL1        0.1788
     13 N          63.7073   89.7453   12.9875 N.ar    1  UNL1       -0.3069
     14 C          62.5348   88.5843   10.8846 C.3     1  UNL1        0.0564
     15 O          60.1913   88.6030   12.0062 O.3     1  UNL1       -0.3844
     16 C          61.0467   88.4236   10.7870 C.3     1  UNL1        0.1127
     17 H          60.7536   88.8179   12.7668 H       1  UNL1        0.2103
     18 C          60.4138   88.0834    9.4703 C.3     1  UNL1        0.0270
     19 C          59.9661   89.1785    8.5481 C.3     1  UNL1        0.0024
     20 C          59.3332   88.8384    7.2314 C.3     1  UNL1        0.0001
     21 C          59.1480   87.4032    6.8368 C.3     1  UNL1        0.0000
     22 C          59.5956   86.3080    7.7589 C.3     1  UNL1        0.0001
     23 C          60.2285   86.6481    9.0757 C.3     1  UNL1        0.0024
@<TRIPOS>BOND
     1    15    16    1
     2    16    14    1
     3    14     1    1
     4     1     2    1
     5     2     3   ar
     6     3     4    1
     7     3     5   ar
     8     5     6   ar
     9     6     7   ar
    10     7     8   ar
    11     8     9    1
    12     9    10   ar
    13    10    11   ar
    14    11    12   ar
    15    12    13   ar
    16    16    18    1
    17    18    19    1
    18    19    20    1
    19    20    21    1
    20    21    22    1
    21    22    23    1
    22    13     1    1
    23    23    18    1
    24     8     2   ar
    25    13     9   ar
    26    15    17    1
@<TRIPOS>MOLECULE
*****
 23 26 0 0 0
SMALL
GASTEIGER

@<TRIPOS>ATOM
      1 C          62.9333   87.0755   12.0440 C.3     1  UNL1        0.1127
      2 C          62.0484   87.8160   11.0855 C.ar    1  UNL1        0.0104
      3 C          61.2228   87.3552    9.9209 C.ar    1  UNL1        0.0555
      4 CL         61.1975   85.9028    9.5476 Cl      1  UNL1       -0.0825
      5 C          60.4226   88.3471    9.1298 C.ar    1  UNL1        0.0111
      6 C          60.4480   89.7996    9.5032 C.ar    1  UNL1        0.0009
      7 C          61.2735   90.2604   10.6678 C.ar    1  UNL1        0.0013
      8 C          62.0738   89.2686   11.4589 C.ar    1  UNL1        0.0160
      9 C          62.9743   89.4258   12.6481 C.ar    1  UNL1        0.0804
     10 C          63.5465   90.4208   13.6139 C.ar    1  UNL1        0.1177
     11 N          64.4314   89.6802   14.5723 N.ar    1  UNL1       -0.2223
     12 C          64.4061   88.2277   14.1990 C.ar    1  UNL1        0.1788
     13 N          63.5055   88.0704   13.0097 N.ar    1  UNL1       -0.3069
     14 C          63.1992   85.5993   12.0378 C.3     1  UNL1        0.0564
     15 O          62.9028   85.4576   14.6150 O.3     1  UNL1       -0.3844
     16 C          62.9500   84.7871   13.2740 C.3     1  UNL1        0.1127
     17 H          63.0515   86.4099   14.5058 H       1  UNL1        0.2103
     18 C          62.7480   83.3045   13.1692 C.3     1  UNL1        0.0270
     19 C          62.1561   82.5451   14.3194 C.3     1  UNL1        0.0024
     20 C          61.9541   81.0624   14.2146 C.3     1  UNL1        0.0001
     21 C          62.3440   80.3392   12.9597 C.3     1  UNL1        0.0000
     22 C          62.9360   81.0986   11.8095 C.3     1  UNL1        0.0001
     23 C          63.1380   82.5812   11.9143 C.3     1  UNL1        0.0024
@<TRIPOS>BOND
     1    15    16    1
     2    16    14    1
     3    14     1    1
     4     1     2    1
     5     2     3   ar
     6     3     4    1
     7     3     5   ar
     8     5     6   ar
     9     6     7   ar
    10     7     8   ar
    11     8     9    1
    12     9    10   ar
    13    10    11   ar
    14    11    12   ar
    15    12    13   ar
    16    16    18    1
    17    18    19    1
    18    19    20    1
    19    20    21    1
    20    21    22    1
    21    22    23    1
    22    13     1    1
    23    23    18    1
    24     8     2   ar
    25    13     9   ar
    26    15    17    1
@<TRIPOS>MOLECULE
*****
 23 26 0 0 0
SMALL
GASTEIGER

@<TRIPOS>ATOM
      1 C          61.6594   88.2052   11.0528 C.3     1  UNL1        0.1127
      2 C          60.8982   87.8821    9.8013 C.ar    1  UNL1        0.0104
      3 C          60.0582   88.7278    8.8908 C.ar    1  UNL1        0.0555
      4 CL         59.8702   90.1868    9.1839 Cl      1  UNL1       -0.0825
      5 C          59.4062   88.1145    7.6870 C.ar    1  UNL1        0.0111
      6 C          59.5943   86.6556    7.3940 C.ar    1  UNL1        0.0009
      7 C          60.4343   85.8098    8.3045 C.ar    1  UNL1        0.0013
      8 C          61.0862   86.4230    9.5082 C.ar    1  UNL1        0.0160
      9 C          61.9636   85.8445   10.5785 C.ar    1  UNL1        0.0804
     10 C          62.6220   84.5852   11.0588 C.ar    1  UNL1        0.1177
     11 N          63.3831   84.9084   12.3103 N.ar    1  UNL1       -0.2223
     12 C          63.1951   86.3674   12.6035 C.ar    1  UNL1        0.1788
     13 N          62.3177   86.9459   11.5331 N.ar    1  UNL1       -0.3069
     14 C          61.7467   89.5513   11.7088 C.3     1  UNL1        0.0564
     15 O          62.7992   91.1141    9.9199 O.3     1  UNL1       -0.3844
     16 C          62.8165   90.5185   11.2966 C.3     1  UNL1        0.1127
     17 H          62.0362   90.7711    9.4288 H       1  UNL1        0.2103
     18 C          63.9036   90.8903   12.2609 C.3     1  UNL1        0.0270
     19 C          64.0483   90.1421   13.5529 C.3     1  UNL1        0.0024
     20 C          65.1354   90.5139   14.5172 C.3     1  UNL1        0.0001
     21 C          66.0779   91.6338   14.1896 C.3     1  UNL1        0.0000
     22 C          65.9333   92.3821   12.8975 C.3     1  UNL1        0.0001
     23 C          64.8462   92.0103   11.9332 C.3     1  UNL1        0.0024
@<TRIPOS>BOND
     1    15    16    1
     2    16    14    1
     3    14     1    1
     4     1     2    1
     5     2     3   ar
     6     3     4    1
     7     3     5   ar
     8     5     6   ar
     9     6     7   ar
    10     7     8   ar
    11     8     9    1
    12     9    10   ar
    13    10    11   ar
    14    11    12   ar
    15    12    13   ar
    16    16    18    1
    17    18    19    1
    18    19    20    1
    19    20    21    1
    20    21    22    1
    21    22    23    1
    22    13     1    1
    23    23    18    1
    24     8     2   ar
    25    13     9   ar
    26    15    17    1
