@<TRIPOS>MOLECULE
*****
 31 34 0 0 0
SMALL
GASTEIGER

@<TRIPOS>ATOM
      1 C          62.1370   86.2006   10.1191 C.ar    1  UNL1        0.0930
      2 C          61.3580   86.2573    8.8385 C.ar    1  UNL1        0.1067
      3 N          60.8693   87.6635    8.6552 N.ar    1  UNL1       -0.2252
      4 C          61.3462   88.4759    9.8225 C.ar    1  UNL1        0.1586
      5 N          61.1682   89.9221   10.1784 N.ar    1  UNL1       -0.3349
      6 C          61.7738   90.4642   11.4391 C.ar    1  UNL1        0.0945
      7 C          62.5574   89.5600   12.3439 C.ar    1  UNL1        0.1177
      8 N          62.7353   88.1138   11.9879 N.ar    1  UNL1       -0.2390
      9 C          62.1297   87.5718   10.7272 C.ar    1  UNL1        0.1210
     10 H          60.6540   90.5156    9.5846 H       1  UNL1        0.1675
     11 C          63.1630   90.1021   13.6046 C.2     1  UNL1        0.1231
     12 N          62.6924   89.8205   15.0008 N.2     1  UNL1       -0.1467
     13 N          63.5840   90.5653   15.9496 N.2     1  UNL1       -0.1520
     14 C          64.6057   91.3073   15.1398 C.2     1  UNL1        0.0866
     15 C          65.7393   92.2067   15.5348 C.3     1  UNL1        0.0768
     16 C          66.6126   92.8197   14.4807 C.2     1  UNL1        0.0173
     17 C          66.3524   92.5335   13.0313 C.2     1  UNL1        0.1405
     18 C          65.2188   91.6341   12.6363 C.2     1  UNL1        0.0396
     19 C          64.3454   91.0211   13.6905 C.2     1  UNL1        0.0396
     20 O          67.2258   93.1466   11.9773 O.2     1  UNL1       -0.4239
     21 C          67.0799   92.7263   10.5447 C.3     1  UNL1        0.5086
     22 F          66.0261   93.3550    9.6822 F       1  UNL1       -0.1550
     23 F          67.9881   91.6772    9.9747 F       1  UNL1       -0.1550
     24 N          62.6574   84.6644   12.1488 N.am    1  UNL1       -0.3039
     25 C          62.8059   84.9859   10.6911 C.2     1  UNL1        0.2488
     26 O          63.6234   84.0929    9.8057 O.2     1  UNL1       -0.2700
     27 H          62.1209   85.2506   12.7300 H       1  UNL1        0.1496
     28 C          64.3676   84.3226   13.3563 C.3     1  UNL1        0.0196
     29 C          63.3263   83.4498   12.7208 C.3     1  UNL1        0.0572
     30 C          62.2850   82.5770   12.0853 C.3     1  UNL1        0.0196
     31 C          63.9952   82.2352   13.2928 C.3     1  UNL1        0.0196
@<TRIPOS>BOND
     1    28    29    1
     2    29    30    1
     3    29    31    1
     4    29    24    1
     5    24    25   am
     6    25    26    2
     7    25     1    1
     8     1     2   ar
     9     2     3   ar
    10     3     4   ar
    11     4     5   ar
    12     5     6   ar
    13     6     7   ar
    14     7    11    1
    15    11    12    2
    16    12    13    1
    17    13    14    2
    18    14    15    1
    19    15    16    1
    20    16    17    2
    21    17    20    1
    22    20    21    1
    23    21    22    1
    24    21    23    1
    25    17    18    1
    26    18    19    2
    27     7     8   ar
    28     8     9   ar
    29     9     1   ar
    30     9     4    1
    31    19    11    1
    32    19    14    1
    33    24    27    1
    34     5    10    1
@<TRIPOS>MOLECULE
*****
 31 34 0 0 0
SMALL
GASTEIGER

@<TRIPOS>ATOM
      1 C          63.3869   85.3436   15.5513 C.ar    1  UNL1        0.0930
      2 C          62.7856   84.8170   16.8206 C.ar    1  UNL1        0.1067
      3 N          62.5351   85.9812   17.7327 N.ar    1  UNL1       -0.2252
      4 C          62.9816   87.2273   17.0271 C.ar    1  UNL1        0.1586
      5 N          62.9768   88.6699   17.4380 N.ar    1  UNL1       -0.3349
      6 C          63.4984   89.7184   16.5007 C.ar    1  UNL1        0.0945
      7 C          64.0248   89.3243   15.1526 C.ar    1  UNL1        0.1177
      8 N          64.0296   87.8817   14.7417 N.ar    1  UNL1       -0.2390
      9 C          63.5080   86.8332   15.6789 C.ar    1  UNL1        0.1210
     10 H          62.6312   88.9285   18.3228 H       1  UNL1        0.1675
     11 C          64.5465   90.3729   14.2153 C.2     1  UNL1        0.1231
     12 N          65.6520   91.3441   14.5061 N.2     1  UNL1       -0.1467
     13 N          65.8430   92.2059   13.2933 N.2     1  UNL1       -0.1520
     14 C          64.8555   91.7672   12.2529 C.2     1  UNL1        0.0866
     15 C          64.5823   92.2528   10.8602 C.3     1  UNL1        0.0768
     16 C          63.5080   91.6058   10.0375 C.2     1  UNL1        0.0173
     17 C          62.7067   90.4729   10.6073 C.2     1  UNL1        0.1405
     18 C          62.9798   89.9873   11.9999 C.2     1  UNL1        0.0396
     19 C          64.0542   90.6344   12.8227 C.2     1  UNL1        0.0396
     20 O          61.6324   89.8259    9.7844 O.2     1  UNL1       -0.4239
     21 C          61.3917   88.3493    9.8926 C.3     1  UNL1        0.5086
     22 F          60.1599   87.8385   10.5793 F       1  UNL1       -0.1550
     23 F          62.3830   87.3835    9.3140 F       1  UNL1       -0.1550
     24 N          62.7524   83.8427   13.5277 N.am    1  UNL1       -0.3039
     25 C          63.7954   84.5244   14.3630 C.2     1  UNL1        0.2488
     26 O          65.2466   84.3868   14.0100 O.2     1  UNL1       -0.2700
     27 H          61.7998   83.9329   13.7594 H       1  UNL1        0.1496
     28 C          63.0187   84.2296   11.4591 C.3     1  UNL1        0.0196
     29 C          63.1609   83.0234   12.3394 C.3     1  UNL1        0.0572
     30 C          63.3030   81.8173   13.2198 C.3     1  UNL1        0.0196
     31 C          63.5693   82.2043   11.1512 C.3     1  UNL1        0.0196
@<TRIPOS>BOND
     1    28    29    1
     2    29    30    1
     3    29    31    1
     4    29    24    1
     5    24    25   am
     6    25    26    2
     7    25     1    1
     8     1     2   ar
     9     2     3   ar
    10     3     4   ar
    11     4     5   ar
    12     5     6   ar
    13     6     7   ar
    14     7    11    1
    15    11    12    2
    16    12    13    1
    17    13    14    2
    18    14    15    1
    19    15    16    1
    20    16    17    2
    21    17    20    1
    22    20    21    1
    23    21    22    1
    24    21    23    1
    25    17    18    1
    26    18    19    2
    27     7     8   ar
    28     8     9   ar
    29     9     1   ar
    30     9     4    1
    31    19    11    1
    32    19    14    1
    33    24    27    1
    34     5    10    1
@<TRIPOS>MOLECULE
*****
 31 34 0 0 0
SMALL
GASTEIGER

@<TRIPOS>ATOM
      1 C          63.3877   84.3605   10.5541 C.ar    1  UNL1        0.0930
      2 C          63.8909   83.0359   10.0622 C.ar    1  UNL1        0.1067
      3 N          64.4687   82.2961   11.2321 N.ar    1  UNL1       -0.2252
      4 C          64.3226   83.1636   12.4471 C.ar    1  UNL1        0.1586
      5 N          64.7116   82.9565   13.8809 N.ar    1  UNL1       -0.3349
      6 C          64.4325   84.0253   14.8956 C.ar    1  UNL1        0.0945
      7 C          63.7643   85.3012   14.4765 C.ar    1  UNL1        0.1177
      8 N          63.3753   85.5083   13.0428 N.ar    1  UNL1       -0.2390
      9 C          63.6544   84.4395   12.0281 C.ar    1  UNL1        0.1210
     10 H          65.1501   82.1190   14.1559 H       1  UNL1        0.1675
     11 C          63.4852   86.3700   15.4913 C.2     1  UNL1        0.1231
     12 N          62.9277   86.1555   16.8673 N.2     1  UNL1       -0.1467
     13 N          62.8125   87.4938   17.5347 N.2     1  UNL1       -0.1520
     14 C          63.2988   88.5356   16.5711 C.2     1  UNL1        0.0866
     15 C          63.4167   90.0270   16.6805 C.3     1  UNL1        0.0768
     16 C          63.9503   90.8237   15.5272 C.2     1  UNL1        0.0173
     17 C          64.3660   90.1292   14.2643 C.2     1  UNL1        0.1405
     18 C          64.2481   88.6378   14.1549 C.2     1  UNL1        0.0396
     19 C          63.7145   87.8411   15.3083 C.2     1  UNL1        0.0396
     20 O          64.8996   90.9260   13.1110 O.2     1  UNL1       -0.4239
     21 C          63.9880   91.3221   11.9874 C.3     1  UNL1        0.5086
     22 F          62.5360   90.9488   12.0326 F       1  UNL1       -0.1550
     23 F          64.5287   92.0915   10.8187 F       1  UNL1       -0.1550
     24 N          61.7248   86.3448   10.3350 N.am    1  UNL1       -0.3039
     25 C          62.7326   85.4203    9.7187 C.2     1  UNL1        0.2488
     26 O          63.0852   85.5556    8.2671 O.2     1  UNL1       -0.2700
     27 H          61.4934   86.2561   11.2878 H       1  UNL1        0.1496
     28 C          60.1137   86.3847    8.9558 C.3     1  UNL1        0.0196
     29 C          61.0698   87.4046    9.4997 C.3     1  UNL1        0.0572
     30 C          62.0259   88.4244   10.0436 C.3     1  UNL1        0.0196
     31 C          60.4147   88.4642    8.6643 C.3     1  UNL1        0.0196
@<TRIPOS>BOND
     1    28    29    1
     2    29    30    1
     3    29    31    1
     4    29    24    1
     5    24    25   am
     6    25    26    2
     7    25     1    1
     8     1     2   ar
     9     2     3   ar
    10     3     4   ar
    11     4     5   ar
    12     5     6   ar
    13     6     7   ar
    14     7    11    1
    15    11    12    2
    16    12    13    1
    17    13    14    2
    18    14    15    1
    19    15    16    1
    20    16    17    2
    21    17    20    1
    22    20    21    1
    23    21    22    1
    24    21    23    1
    25    17    18    1
    26    18    19    2
    27     7     8   ar
    28     8     9   ar
    29     9     1   ar
    30     9     4    1
    31    19    11    1
    32    19    14    1
    33    24    27    1
    34     5    10    1
@<TRIPOS>MOLECULE
*****
 31 34 0 0 0
SMALL
GASTEIGER

@<TRIPOS>ATOM
      1 C          63.4755   85.7189   15.7847 C.ar    1  UNL1        0.0930
      2 C          63.1559   85.4284   17.2211 C.ar    1  UNL1        0.1067
      3 N          62.9694   86.7380   17.9284 N.ar    1  UNL1       -0.2252
      4 C          63.1738   87.8378   16.9291 C.ar    1  UNL1        0.1586
      5 N          63.1156   89.3314   17.0545 N.ar    1  UNL1       -0.3349
      6 C          63.3700   90.1951   15.8548 C.ar    1  UNL1        0.0945
      7 C          63.6828   89.5653   14.5299 C.ar    1  UNL1        0.1177
      8 N          63.7411   88.0717   14.4046 N.ar    1  UNL1       -0.2390
      9 C          63.4866   87.2080   15.6042 C.ar    1  UNL1        0.1210
     10 H          62.9103   89.7448   17.9241 H       1  UNL1        0.1675
     11 C          63.9373   90.4291   13.3302 C.2     1  UNL1        0.1231
     12 N          63.0360   90.5724   12.1398 N.2     1  UNL1       -0.1467
     13 N          63.6794   91.5331   11.1842 N.2     1  UNL1       -0.1520
     14 C          64.9783   91.9836   11.7842 C.2     1  UNL1        0.0866
     15 C          66.0366   92.9269   11.2941 C.3     1  UNL1        0.0768
     16 C          67.2542   93.1879   12.1303 C.2     1  UNL1        0.0173
     17 C          67.4136   92.5056   13.4566 C.2     1  UNL1        0.1405
     18 C          66.3553   91.5623   13.9467 C.2     1  UNL1        0.0396
     19 C          65.1377   91.3013   13.1104 C.2     1  UNL1        0.0396
     20 O          68.6312   92.7667   14.2927 O.2     1  UNL1       -0.4239
     21 C          68.4826   93.1426   15.7373 C.3     1  UNL1        0.5086
     22 F          68.1369   92.0947   16.7532 F       1  UNL1       -0.1550
     23 F          68.6797   94.5666   16.1658 F       1  UNL1       -0.1550
     24 N          62.5906   84.0586   13.9928 N.am    1  UNL1       -0.3039
     25 C          63.7379   84.6993   14.7162 C.2     1  UNL1        0.2488
     26 O          65.1476   84.3203   14.3711 O.2     1  UNL1       -0.2700
     27 H          61.6653   84.3074   14.2192 H       1  UNL1        0.1496
     28 C          62.9138   84.1309   11.8975 C.3     1  UNL1        0.0196
     29 C          62.8530   83.0391   12.9243 C.3     1  UNL1        0.0572
     30 C          62.7922   81.9473   13.9512 C.3     1  UNL1        0.0196
     31 C          63.1155   82.0196   11.8559 C.3     1  UNL1        0.0196
@<TRIPOS>BOND
     1    28    29    1
     2    29    30    1
     3    29    31    1
     4    29    24    1
     5    24    25   am
     6    25    26    2
     7    25     1    1
     8     1     2   ar
     9     2     3   ar
    10     3     4   ar
    11     4     5   ar
    12     5     6   ar
    13     6     7   ar
    14     7    11    1
    15    11    12    2
    16    12    13    1
    17    13    14    2
    18    14    15    1
    19    15    16    1
    20    16    17    2
    21    17    20    1
    22    20    21    1
    23    21    22    1
    24    21    23    1
    25    17    18    1
    26    18    19    2
    27     7     8   ar
    28     8     9   ar
    29     9     1   ar
    30     9     4    1
    31    19    11    1
    32    19    14    1
    33    24    27    1
    34     5    10    1
@<TRIPOS>MOLECULE
*****
 31 34 0 0 0
SMALL
GASTEIGER

@<TRIPOS>ATOM
      1 C          62.4510   90.5160   10.6919 C.ar    1  UNL1        0.0930
      2 C          63.1299   91.6835   10.0391 C.ar    1  UNL1        0.1067
      3 N          64.2613   92.1157   10.9240 N.ar    1  UNL1       -0.2252
      4 C          64.2817   91.2154   12.1236 C.ar    1  UNL1        0.1586
      5 N          65.1746   91.1681   13.3279 N.ar    1  UNL1       -0.3349
      6 C          64.9485   90.1322   14.3889 C.ar    1  UNL1        0.0945
      7 C          63.8296   89.1435   14.2454 C.ar    1  UNL1        0.1177
      8 N          62.9368   89.1908   13.0410 N.ar    1  UNL1       -0.2390
      9 C          63.1628   90.2267   11.9801 C.ar    1  UNL1        0.1210
     10 H          65.9089   91.8171   13.4221 H       1  UNL1        0.1675
     11 C          63.6036   88.1075   15.3064 C.2     1  UNL1        0.1231
     12 N          63.1920   88.3728   16.7243 N.2     1  UNL1       -0.1467
     13 N          63.0835   87.0536   17.4300 N.2     1  UNL1       -0.1520
     14 C          63.4280   85.9730   16.4483 C.2     1  UNL1        0.0866
     15 C          63.4905   84.4801   16.5799 C.3     1  UNL1        0.0768
     16 C          63.8745   83.6386   15.3991 C.2     1  UNL1        0.0173
     17 C          64.1959   84.2899   14.0866 C.2     1  UNL1        0.1405
     18 C          64.1334   85.7828   13.9551 C.2     1  UNL1        0.0396
     19 C          63.7494   86.6244   15.1359 C.2     1  UNL1        0.0396
     20 O          64.5799   83.4483   12.9059 O.2     1  UNL1       -0.4239
     21 C          63.8174   83.5683   11.6197 C.3     1  UNL1        0.5086
     22 F          64.5002   83.2874   10.3141 F       1  UNL1       -0.1550
     23 F          62.3720   83.9692   11.6393 F       1  UNL1       -0.1550
     24 N          61.4749   88.5768    9.2647 N.am    1  UNL1       -0.3039
     25 C          61.2679   89.7690   10.1513 C.2     1  UNL1        0.2488
     26 O          59.8779   90.2140   10.4972 O.2     1  UNL1       -0.2700
     27 H          62.3872   88.2846    9.0377 H       1  UNL1        0.1496
     28 C          60.6205   86.6665    9.6124 C.3     1  UNL1        0.0196
     29 C          60.2918   87.8297    8.7241 C.3     1  UNL1        0.0572
     30 C          59.9631   88.9929    7.8359 C.3     1  UNL1        0.0196
     31 C          59.1088   87.0827    8.1836 C.3     1  UNL1        0.0196
@<TRIPOS>BOND
     1    28    29    1
     2    29    30    1
     3    29    31    1
     4    29    24    1
     5    24    25   am
     6    25    26    2
     7    25     1    1
     8     1     2   ar
     9     2     3   ar
    10     3     4   ar
    11     4     5   ar
    12     5     6   ar
    13     6     7   ar
    14     7    11    1
    15    11    12    2
    16    12    13    1
    17    13    14    2
    18    14    15    1
    19    15    16    1
    20    16    17    2
    21    17    20    1
    22    20    21    1
    23    21    22    1
    24    21    23    1
    25    17    18    1
    26    18    19    2
    27     7     8   ar
    28     8     9   ar
    29     9     1   ar
    30     9     4    1
    31    19    11    1
    32    19    14    1
    33    24    27    1
    34     5    10    1
@<TRIPOS>MOLECULE
*****
 31 34 0 0 0
SMALL
GASTEIGER

@<TRIPOS>ATOM
      1 C          62.1792   86.1772    9.5426 C.ar    1  UNL1        0.0930
      2 C          62.6804   85.5473    8.2769 C.ar    1  UNL1        0.1067
      3 N          63.5045   84.3506    8.6496 N.ar    1  UNL1       -0.2252
      4 C          63.5125   84.2409   10.1455 C.ar    1  UNL1        0.1586
      5 N          64.1598   83.2589   11.0764 N.ar    1  UNL1       -0.3349
      6 C          63.9880   83.4058   12.5593 C.ar    1  UNL1        0.0945
      7 C          63.1689   84.5347   13.1112 C.ar    1  UNL1        0.1177
      8 N          62.5216   85.5167   12.1803 N.ar    1  UNL1       -0.2390
      9 C          62.6934   85.3698   10.6975 C.ar    1  UNL1        0.1210
     10 H          64.6974   82.5180   10.7142 H       1  UNL1        0.1675
     11 C          62.9971   84.6815   14.5941 C.2     1  UNL1        0.1231
     12 N          62.6878   83.5760   15.5597 N.2     1  UNL1       -0.1467
     13 N          62.6040   84.1709   16.9341 N.2     1  UNL1       -0.1520
     14 C          62.8615   85.6441   16.8180 C.2     1  UNL1        0.0866
     15 C          62.9062   86.7389   17.8423 C.3     1  UNL1        0.0768
     16 C          63.1937   88.1493   17.4206 C.2     1  UNL1        0.0173
     17 C          63.4367   88.4650   15.9744 C.2     1  UNL1        0.1405
     18 C          63.3921   87.3701   14.9500 C.2     1  UNL1        0.0396
     19 C          63.1045   85.9597   15.3719 C.2     1  UNL1        0.0396
     20 O          63.7243   89.8754   15.5527 O.2     1  UNL1       -0.4239
     21 C          64.6252   90.1395   14.3827 C.3     1  UNL1        0.5086
     22 F          64.1525   89.8435   12.9903 F       1  UNL1       -0.1550
     23 F          65.9988   90.6997   14.6053 F       1  UNL1       -0.1550
     24 N          61.3787   88.2707   10.8567 N.am    1  UNL1       -0.3039
     25 C          61.3153   87.3998    9.6369 C.2     1  UNL1        0.2488
     26 O          60.3881   87.7517    8.5117 O.2     1  UNL1       -0.2700
     27 H          61.9873   88.0398   11.5953 H       1  UNL1        0.1496
     28 C          61.5329   90.2727   10.1724 C.3     1  UNL1        0.0196
     29 C          60.5148   89.4934   10.9510 C.3     1  UNL1        0.0572
     30 C          59.4968   88.7140   11.7296 C.3     1  UNL1        0.0196
     31 C          59.6510   90.7159   11.0453 C.3     1  UNL1        0.0196
@<TRIPOS>BOND
     1    28    29    1
     2    29    30    1
     3    29    31    1
     4    29    24    1
     5    24    25   am
     6    25    26    2
     7    25     1    1
     8     1     2   ar
     9     2     3   ar
    10     3     4   ar
    11     4     5   ar
    12     5     6   ar
    13     6     7   ar
    14     7    11    1
    15    11    12    2
    16    12    13    1
    17    13    14    2
    18    14    15    1
    19    15    16    1
    20    16    17    2
    21    17    20    1
    22    20    21    1
    23    21    22    1
    24    21    23    1
    25    17    18    1
    26    18    19    2
    27     7     8   ar
    28     8     9   ar
    29     9     1   ar
    30     9     4    1
    31    19    11    1
    32    19    14    1
    33    24    27    1
    34     5    10    1
