@<TRIPOS>MOLECULE
*****
 34 38 0 0 0
SMALL
GASTEIGER

@<TRIPOS>ATOM
      1 C          61.6414   89.1011   11.4817 C.3     1  UNL1        0.1096
      2 C          60.6674   89.9355   10.7037 C.3     1  UNL1        0.1622
      3 O          59.8611   89.3150    9.6016 O.3     1  UNL1       -0.3502
      4 C          60.0288   87.8601    9.2773 C.3     1  UNL1        0.1637
      5 C          61.0027   87.0257   10.0553 C.3     1  UNL1        0.1257
      6 N          61.8090   87.6462   11.1575 N.am    1  UNL1       -0.2723
      7 C          62.7830   86.8118   11.9354 C.2     1  UNL1        0.2506
      8 O          63.5893   87.4323   13.0376 O.2     1  UNL1       -0.2699
      9 C          62.9506   85.3569   11.6112 C.ar    1  UNL1        0.0729
     10 C          62.9823   84.9060   10.1809 C.ar    1  UNL1        0.0058
     11 C          63.1500   83.4511    9.8567 C.ar    1  UNL1       -0.0040
     12 C          63.2859   82.4470   10.9627 C.ar    1  UNL1       -0.0203
     13 C          63.4535   80.9921   10.6385 C.3     1  UNL1        0.0311
     14 C          63.2541   82.8979   12.3930 C.ar    1  UNL1        0.0168
     15 C          63.0865   84.3528   12.7172 C.ar    1  UNL1        0.1069
     16 N          63.0548   84.8036   14.1475 N.ar    1  UNL1       -0.1477
     17 N          61.8591   84.7803   15.0530 N.ar    1  UNL1       -0.1447
     18 C          62.2784   85.3191   16.3886 C.ar    1  UNL1        0.1446
     19 C          63.7333   85.6755   16.3085 C.ar    1  UNL1        0.1446
     20 N          64.2131   85.3569   14.9235 N.ar    1  UNL1       -0.1447
     21 C          62.4477   89.7216   12.5839 C.3     1  UNL1        0.0487
     22 C          65.7089   92.6635   11.6040 C.ar    1  UNL1        0.1417
     23 C          64.7245   92.2559   10.5483 C.ar    1  UNL1        0.0367
     24 C          63.6374   91.2752   10.8749 C.ar    1  UNL1       -0.0011
     25 C          63.5348   90.7022   12.2573 C.ar    1  UNL1       -0.0201
     26 C          64.5192   91.1098   13.3131 C.ar    1  UNL1        0.0020
     27 C          65.6062   92.0905   12.9864 C.ar    1  UNL1        0.0727
     28 C          66.5907   92.4981   14.0423 C.ar    1  UNL1        0.2066
     29 N          68.0817   92.3565   13.9594 N.ar    1  UNL1       -0.1828
     30 C          68.6694   92.8897   15.2323 C.ar    1  UNL1        0.3164
     31 O          67.5416   93.3609   16.1019 O.2     1  UNL1       -0.3274
     32 N          66.2569   93.1188   15.3665 N.ar    1  UNL1       -0.0553
     33 C          66.4675   95.0971   11.1022 C.3     1  UNL1        0.2525
     34 O          66.7960   93.6441   11.2774 O.3     1  UNL1       -0.4713
@<TRIPOS>BOND
     1    33    34    1
     2    34    22    1
     3    22    23   ar
     4    23    24   ar
     5    24    25   ar
     6    25    21    1
     7     1    21    1
     8     1     2    1
     9     2     3    1
    10     3     4    1
    11     4     5    1
    12     5     6    1
    13     6     7   am
    14     7     8    2
    15     7     9    1
    16     9    10   ar
    17    10    11   ar
    18    11    12   ar
    19    12    13    1
    20    12    14   ar
    21    14    15   ar
    22    15    16    1
    23    16    17   ar
    24    17    18   ar
    25    18    19   ar
    26    19    20   ar
    27    25    26   ar
    28    26    27   ar
    29    27    28    1
    30    28    29   ar
    31    29    30   ar
    32    30    31   ar
    33    31    32   ar
    34    27    22   ar
    35    32    28   ar
    36     6     1    1
    37    15     9   ar
    38    20    16   ar
@<TRIPOS>MOLECULE
*****
 34 38 0 0 0
SMALL
GASTEIGER

@<TRIPOS>ATOM
      1 C          62.2437   89.5197   11.9209 C.3     1  UNL1        0.1096
      2 C          61.5884   90.5476   11.0467 C.3     1  UNL1        0.1622
      3 O          61.0358   90.1525    9.7094 O.3     1  UNL1       -0.3502
      4 C          61.1383   88.7295    9.2462 C.3     1  UNL1        0.1637
      5 C          61.7935   87.7016   10.1203 C.3     1  UNL1        0.1257
      6 N          62.3462   88.0967   11.4577 N.am    1  UNL1       -0.2723
      7 C          63.0014   87.0688   12.3318 C.2     1  UNL1        0.2506
      8 O          63.5541   87.4639   13.6691 O.2     1  UNL1       -0.2699
      9 C          63.1040   85.6458   11.8686 C.ar    1  UNL1        0.0729
     10 C          63.1460   85.3357   10.4016 C.ar    1  UNL1        0.0058
     11 C          63.2485   83.9127    9.9385 C.ar    1  UNL1       -0.0040
     12 C          63.3090   82.7998   10.9423 C.ar    1  UNL1       -0.0203
     13 C          63.4116   81.3768   10.4791 C.3     1  UNL1        0.0311
     14 C          63.2670   83.1099   12.4092 C.ar    1  UNL1        0.0168
     15 C          63.1645   84.5329   12.8724 C.ar    1  UNL1        0.1069
     16 N          63.1225   84.8429   14.3395 N.ar    1  UNL1       -0.1477
     17 N          61.8968   84.8505   15.2043 N.ar    1  UNL1       -0.1447
     18 C          62.3155   85.2120   16.5985 C.ar    1  UNL1        0.1446
     19 C          63.8000   85.4279   16.5954 C.ar    1  UNL1        0.1446
     20 N          64.2986   85.1998   15.1993 N.ar    1  UNL1       -0.1447
     21 C          62.7964   89.9148   13.2581 C.3     1  UNL1        0.0487
     22 C          66.7335   92.0788   13.5154 C.ar    1  UNL1        0.1417
     23 C          66.2950   91.1836   14.6363 C.ar    1  UNL1        0.0367
     24 C          64.9827   90.4623   14.5505 C.ar    1  UNL1       -0.0011
     25 C          64.1087   90.6362   13.3439 C.ar    1  UNL1       -0.0201
     26 C          64.5472   91.5313   12.2230 C.ar    1  UNL1        0.0020
     27 C          65.8596   92.2527   12.3088 C.ar    1  UNL1        0.0727
     28 C          66.2980   93.1479   11.1878 C.ar    1  UNL1        0.2066
     29 N          67.4815   92.9257   10.2935 N.ar    1  UNL1       -0.1828
     30 C          67.5448   94.0630    9.3174 C.ar    1  UNL1        0.3164
     31 O          66.4004   94.9880    9.6085 O.2     1  UNL1       -0.3274
     32 N          65.6298   94.4224   10.7645 N.ar    1  UNL1       -0.0553
     33 C          68.8122   92.8123   14.8906 C.3     1  UNL1        0.2525
     34 O          68.0459   92.8001   13.6012 O.3     1  UNL1       -0.4713
@<TRIPOS>BOND
     1    33    34    1
     2    34    22    1
     3    22    23   ar
     4    23    24   ar
     5    24    25   ar
     6    25    21    1
     7     1    21    1
     8     1     2    1
     9     2     3    1
    10     3     4    1
    11     4     5    1
    12     5     6    1
    13     6     7   am
    14     7     8    2
    15     7     9    1
    16     9    10   ar
    17    10    11   ar
    18    11    12   ar
    19    12    13    1
    20    12    14   ar
    21    14    15   ar
    22    15    16    1
    23    16    17   ar
    24    17    18   ar
    25    18    19   ar
    26    19    20   ar
    27    25    26   ar
    28    26    27   ar
    29    27    28    1
    30    28    29   ar
    31    29    30   ar
    32    30    31   ar
    33    31    32   ar
    34    27    22   ar
    35    32    28   ar
    36     6     1    1
    37    15     9   ar
    38    20    16   ar
@<TRIPOS>MOLECULE
*****
 34 38 0 0 0
SMALL
GASTEIGER

@<TRIPOS>ATOM
      1 C          63.3025   88.8895   15.4323 C.3     1  UNL1        0.1096
      2 C          63.1763   89.1832   16.8979 C.3     1  UNL1        0.1622
      3 O          63.0866   88.0562   17.8837 O.3     1  UNL1       -0.3502
      4 C          63.1231   86.6355   17.4040 C.3     1  UNL1        0.1637
      5 C          63.2493   86.3417   15.9385 C.3     1  UNL1        0.1257
      6 N          63.3390   87.4687   14.9526 N.am    1  UNL1       -0.2723
      7 C          63.4652   87.1749   13.4871 C.2     1  UNL1        0.2506
      8 O          63.5548   88.3019   12.5013 O.2     1  UNL1       -0.2699
      9 C          63.5017   85.7542   13.0074 C.ar    1  UNL1        0.0729
     10 C          64.3259   84.7365   13.7389 C.ar    1  UNL1        0.0058
     11 C          64.3624   83.3158   13.2592 C.ar    1  UNL1       -0.0040
     12 C          63.5747   82.9127   12.0480 C.ar    1  UNL1       -0.0203
     13 C          63.6112   81.4919   11.5683 C.3     1  UNL1        0.0311
     14 C          62.7505   83.9303   11.3165 C.ar    1  UNL1        0.0168
     15 C          62.7140   85.3510   11.7962 C.ar    1  UNL1        0.1069
     16 N          61.8898   86.3687   11.0647 N.ar    1  UNL1       -0.1477
     17 N          60.6621   87.0517   11.5902 N.ar    1  UNL1       -0.1447
     18 C          60.1620   87.9871   10.5296 C.ar    1  UNL1        0.1446
     19 C          61.0808   87.8822    9.3484 C.ar    1  UNL1        0.1446
     20 N          62.1485   86.8819    9.6792 N.ar    1  UNL1       -0.1447
     21 C          63.3921   90.0164   14.4465 C.3     1  UNL1        0.0487
     22 C          66.8887   92.8462   14.5759 C.ar    1  UNL1        0.1417
     23 C          66.1828   92.4678   15.8441 C.ar    1  UNL1        0.0367
     24 C          65.0173   91.5245   15.8010 C.ar    1  UNL1       -0.0011
     25 C          64.5577   90.9597   14.4896 C.ar    1  UNL1       -0.0201
     26 C          65.2636   91.3381   13.2214 C.ar    1  UNL1        0.0020
     27 C          66.4291   92.2814   13.2646 C.ar    1  UNL1        0.0727
     28 C          67.1350   92.6598   11.9963 C.ar    1  UNL1        0.2066
     29 N          66.7426   93.7691   11.0660 N.ar    1  UNL1       -0.1828
     30 C          67.7223   93.7902    9.9304 C.ar    1  UNL1        0.3164
     31 O          68.7204   92.6939   10.1588 O.2     1  UNL1       -0.3274
     32 N          68.3574   91.9953   11.4356 N.ar    1  UNL1       -0.0553
     33 C          68.9533   93.8163   15.8194 C.3     1  UNL1        0.2525
     34 O          68.0542   93.7894   14.6191 O.3     1  UNL1       -0.4713
@<TRIPOS>BOND
     1    33    34    1
     2    34    22    1
     3    22    23   ar
     4    23    24   ar
     5    24    25   ar
     6    25    21    1
     7     1    21    1
     8     1     2    1
     9     2     3    1
    10     3     4    1
    11     4     5    1
    12     5     6    1
    13     6     7   am
    14     7     8    2
    15     7     9    1
    16     9    10   ar
    17    10    11   ar
    18    11    12   ar
    19    12    13    1
    20    12    14   ar
    21    14    15   ar
    22    15    16    1
    23    16    17   ar
    24    17    18   ar
    25    18    19   ar
    26    19    20   ar
    27    25    26   ar
    28    26    27   ar
    29    27    28    1
    30    28    29   ar
    31    29    30   ar
    32    30    31   ar
    33    31    32   ar
    34    27    22   ar
    35    32    28   ar
    36     6     1    1
    37    15     9   ar
    38    20    16   ar
@<TRIPOS>MOLECULE
*****
 34 38 0 0 0
SMALL
GASTEIGER

@<TRIPOS>ATOM
      1 C          63.1504   89.4669   14.2851 C.3     1  UNL1        0.1096
      2 C          63.1110   90.2844   15.5423 C.3     1  UNL1        0.1622
      3 O          63.2232   89.6116   16.8782 O.3     1  UNL1       -0.3502
      4 C          63.3748   88.1214   16.9571 C.3     1  UNL1        0.1637
      5 C          63.4142   87.3039   15.7001 C.3     1  UNL1        0.1257
      6 N          63.3019   87.9767   14.3640 N.am    1  UNL1       -0.2723
      7 C          63.3413   87.1592   13.1070 C.2     1  UNL1        0.2506
      8 O          63.2291   87.8320   11.7711 O.2     1  UNL1       -0.2699
      9 C          63.4929   85.6690   13.1859 C.ar    1  UNL1        0.0729
     10 C          64.1893   85.0470   14.3599 C.ar    1  UNL1        0.0058
     11 C          64.3409   83.5568   14.4387 C.ar    1  UNL1       -0.0040
     12 C          63.7961   82.6885   13.3437 C.ar    1  UNL1       -0.0203
     13 C          63.9477   81.1983   13.4226 C.3     1  UNL1        0.0311
     14 C          63.0997   83.3104   12.1698 C.ar    1  UNL1        0.0168
     15 C          62.9481   84.8007   12.0909 C.ar    1  UNL1        0.1069
     16 N          62.2516   85.4226   10.9168 N.ar    1  UNL1       -0.1477
     17 N          62.7213   85.3867    9.4927 N.ar    1  UNL1       -0.1447
     18 C          61.7233   86.1314    8.6565 C.ar    1  UNL1        0.1446
     19 C          60.6367   86.6277    9.5639 C.ar    1  UNL1        0.1446
     20 N          60.9633   86.1895   10.9608 N.ar    1  UNL1       -0.1447
     21 C          63.0381   90.1397   12.9492 C.3     1  UNL1        0.0487
     22 C          66.2468   92.9853   11.5864 C.ar    1  UNL1        0.1417
     23 C          65.1314   92.6112   10.6558 C.ar    1  UNL1        0.0367
     24 C          64.0619   91.6627   11.1101 C.ar    1  UNL1       -0.0011
     25 C          64.1077   91.0882   12.4949 C.ar    1  UNL1       -0.0201
     26 C          65.2230   91.4623   13.4255 C.ar    1  UNL1        0.0020
     27 C          66.2926   92.4108   12.9713 C.ar    1  UNL1        0.0727
     28 C          67.4079   92.7849   13.9019 C.ar    1  UNL1        0.2066
     29 N          67.3008   93.7054   15.0814 N.ar    1  UNL1       -0.1828
     30 C          68.6529   93.7936   15.7249 C.ar    1  UNL1        0.3164
     31 O          69.5957   92.9275   14.9431 O.2     1  UNL1       -0.3274
     32 N          68.8262   92.3042   13.8165 N.ar    1  UNL1       -0.0553
     33 C          67.4354   94.2901    9.6800 C.3     1  UNL1        0.2525
     34 O          67.3163   93.9338   11.1321 O.3     1  UNL1       -0.4713
@<TRIPOS>BOND
     1    33    34    1
     2    34    22    1
     3    22    23   ar
     4    23    24   ar
     5    24    25   ar
     6    25    21    1
     7     1    21    1
     8     1     2    1
     9     2     3    1
    10     3     4    1
    11     4     5    1
    12     5     6    1
    13     6     7   am
    14     7     8    2
    15     7     9    1
    16     9    10   ar
    17    10    11   ar
    18    11    12   ar
    19    12    13    1
    20    12    14   ar
    21    14    15   ar
    22    15    16    1
    23    16    17   ar
    24    17    18   ar
    25    18    19   ar
    26    19    20   ar
    27    25    26   ar
    28    26    27   ar
    29    27    28    1
    30    28    29   ar
    31    29    30   ar
    32    30    31   ar
    33    31    32   ar
    34    27    22   ar
    35    32    28   ar
    36     6     1    1
    37    15     9   ar
    38    20    16   ar
@<TRIPOS>MOLECULE
*****
 34 38 0 0 0
SMALL
GASTEIGER

@<TRIPOS>ATOM
      1 C          63.9051   88.2654   13.9602 C.3     1  UNL1        0.1096
      2 C          64.5753   87.4972   15.0606 C.3     1  UNL1        0.1622
      3 O          64.6623   86.0017   14.9860 O.3     1  UNL1       -0.3502
      4 C          64.0791   85.2741   13.8110 C.3     1  UNL1        0.1637
      5 C          63.4089   86.0421   12.7107 C.3     1  UNL1        0.1257
      6 N          63.3219   87.5378   12.7852 N.am    1  UNL1       -0.2723
      7 C          62.6516   88.3058   11.6848 C.2     1  UNL1        0.2506
      8 O          62.5646   89.8014   11.7594 O.2     1  UNL1       -0.2699
      9 C          62.0684   87.5783   10.5099 C.ar    1  UNL1        0.0729
     10 C          62.8910   86.5638    9.7723 C.ar    1  UNL1        0.0058
     11 C          62.3078   85.8362    8.5973 C.ar    1  UNL1       -0.0040
     12 C          60.9020   86.1232    8.1599 C.ar    1  UNL1       -0.0203
     13 C          60.3188   85.3957    6.9850 C.3     1  UNL1        0.0311
     14 C          60.0794   87.1377    8.8975 C.ar    1  UNL1        0.0168
     15 C          60.6626   87.8653   10.0725 C.ar    1  UNL1        0.1069
     16 N          59.8400   88.8798   10.8101 N.ar    1  UNL1       -0.1477
     17 N          59.0594   88.6362   12.0677 N.ar    1  UNL1       -0.1447
     18 C          58.3905   89.9219   12.4544 C.ar    1  UNL1        0.1446
     19 C          58.7576   90.9601   11.4358 C.ar    1  UNL1        0.1446
     20 N          59.6534   90.3160   10.4196 N.ar    1  UNL1       -0.1447
     21 C          63.8180   89.7609   14.0348 C.3     1  UNL1        0.0487
     22 C          67.5780   92.2299   14.1650 C.ar    1  UNL1        0.1417
     23 C          67.2394   91.3183   15.3071 C.ar    1  UNL1        0.0367
     24 C          65.9861   90.4953   15.2637 C.ar    1  UNL1       -0.0011
     25 C          65.0713   90.5839   14.0782 C.ar    1  UNL1       -0.0201
     26 C          65.4099   91.4955   12.9361 C.ar    1  UNL1        0.0020
     27 C          66.6633   92.3185   12.9796 C.ar    1  UNL1        0.0727
     28 C          67.0018   93.2301   11.8374 C.ar    1  UNL1        0.2066
     29 N          66.4870   94.6251   11.6403 N.ar    1  UNL1       -0.1828
     30 C          67.0817   95.1639   10.3729 C.ar    1  UNL1        0.3164
     31 O          67.9641   94.1018    9.7868 O.2     1  UNL1       -0.3274
     32 N          67.9147   92.9067   10.6919 N.ar    1  UNL1       -0.0553
     33 C          69.2938   93.6470   15.5057 C.3     1  UNL1        0.2525
     34 O          68.8313   93.0529   14.2084 O.3     1  UNL1       -0.4713
@<TRIPOS>BOND
     1    33    34    1
     2    34    22    1
     3    22    23   ar
     4    23    24   ar
     5    24    25   ar
     6    25    21    1
     7     1    21    1
     8     1     2    1
     9     2     3    1
    10     3     4    1
    11     4     5    1
    12     5     6    1
    13     6     7   am
    14     7     8    2
    15     7     9    1
    16     9    10   ar
    17    10    11   ar
    18    11    12   ar
    19    12    13    1
    20    12    14   ar
    21    14    15   ar
    22    15    16    1
    23    16    17   ar
    24    17    18   ar
    25    18    19   ar
    26    19    20   ar
    27    25    26   ar
    28    26    27   ar
    29    27    28    1
    30    28    29   ar
    31    29    30   ar
    32    30    31   ar
    33    31    32   ar
    34    27    22   ar
    35    32    28   ar
    36     6     1    1
    37    15     9   ar
    38    20    16   ar
@<TRIPOS>MOLECULE
*****
 34 38 0 0 0
SMALL
GASTEIGER

@<TRIPOS>ATOM
      1 C          61.0304   90.1669   10.9870 C.3     1  UNL1        0.1096
      2 C          59.7867   90.9459   11.2974 C.3     1  UNL1        0.1622
      3 O          58.6621   90.2958   12.0475 O.3     1  UNL1       -0.3502
      4 C          58.7812   88.8666   12.4872 C.3     1  UNL1        0.1637
      5 C          60.0249   88.0876   12.1768 C.3     1  UNL1        0.1257
      6 N          61.1495   88.7378   11.4267 N.am    1  UNL1       -0.2723
      7 C          62.3932   87.9588   11.1163 C.2     1  UNL1        0.2506
      8 O          63.5178   88.6089   10.3663 O.2     1  UNL1       -0.2699
      9 C          62.5123   86.5296   11.5560 C.ar    1  UNL1        0.0729
     10 C          63.1692   86.1994   12.8634 C.ar    1  UNL1        0.0058
     11 C          63.2883   84.7702   13.3031 C.ar    1  UNL1       -0.0040
     12 C          62.7505   83.6713   12.4353 C.ar    1  UNL1       -0.0203
     13 C          62.8696   82.2421   12.8750 C.3     1  UNL1        0.0311
     14 C          62.0936   84.0015   11.1279 C.ar    1  UNL1        0.0168
     15 C          61.9745   85.4306   10.6882 C.ar    1  UNL1        0.1069
     16 N          61.3176   85.7608    9.3807 N.ar    1  UNL1       -0.1477
     17 N          60.0203   86.4933    9.2060 N.ar    1  UNL1       -0.1447
     18 C          59.7435   86.6017    7.7358 C.ar    1  UNL1        0.1446
     19 C          60.8698   85.9361    7.0018 C.ar    1  UNL1        0.1446
     20 N          61.8426   85.4165    8.0185 N.ar    1  UNL1       -0.1447
     21 C          62.1550   90.8171   10.2370 C.3     1  UNL1        0.0487
     22 C          65.7150   92.4265   12.4699 C.ar    1  UNL1        0.1417
     23 C          64.6670   91.6379   13.1977 C.ar    1  UNL1        0.0367
     24 C          63.4803   91.1015   12.4534 C.ar    1  UNL1       -0.0011
     25 C          63.3417   91.3536   10.9813 C.ar    1  UNL1       -0.0201
     26 C          64.3897   92.1421   10.2535 C.ar    1  UNL1        0.0020
     27 C          65.5764   92.6786   10.9978 C.ar    1  UNL1        0.0727
     28 C          66.6244   93.4672   10.2699 C.ar    1  UNL1        0.2066
     29 N          66.4288   94.8052    9.6208 N.ar    1  UNL1       -0.1828
     30 C          67.7355   95.2211    9.0131 C.ar    1  UNL1        0.3164
     31 O          68.7389   94.1401    9.2866 O.2     1  UNL1       -0.3274
     32 N          68.0522   93.0561   10.0634 N.ar    1  UNL1       -0.0553
     33 C          66.7347   93.5003   14.6046 C.3     1  UNL1        0.2525
     34 O          66.9017   92.9630   13.2142 O.3     1  UNL1       -0.4713
@<TRIPOS>BOND
     1    33    34    1
     2    34    22    1
     3    22    23   ar
     4    23    24   ar
     5    24    25   ar
     6    25    21    1
     7     1    21    1
     8     1     2    1
     9     2     3    1
    10     3     4    1
    11     4     5    1
    12     5     6    1
    13     6     7   am
    14     7     8    2
    15     7     9    1
    16     9    10   ar
    17    10    11   ar
    18    11    12   ar
    19    12    13    1
    20    12    14   ar
    21    14    15   ar
    22    15    16    1
    23    16    17   ar
    24    17    18   ar
    25    18    19   ar
    26    19    20   ar
    27    25    26   ar
    28    26    27   ar
    29    27    28    1
    30    28    29   ar
    31    29    30   ar
    32    30    31   ar
    33    31    32   ar
    34    27    22   ar
    35    32    28   ar
    36     6     1    1
    37    15     9   ar
    38    20    16   ar
