@<TRIPOS>MOLECULE
*****
 30 34 0 0 0
SMALL
GASTEIGER

@<TRIPOS>ATOM
      1 C          62.7226   84.0103   10.9586 C.ar    1  UNL1        0.2673
      2 N          63.6764   84.0500    9.8015 N.ar    1  UNL1       -0.1056
      3 N          63.1751   85.0698    8.8224 N.ar    1  UNL1       -0.1114
      4 C          61.9116   85.6604    9.3743 C.ar    1  UNL1        0.2261
      5 O          61.6319   85.0056   10.6946 O.2     1  UNL1       -0.4182
      6 C          63.1467   85.1700   15.4849 C.ar    1  UNL1        0.0801
      7 C          63.1943   83.7440   15.9475 C.ar    1  UNL1        0.0356
      8 C          63.0827   82.8610   14.7401 C.ar    1  UNL1        0.0842
      9 C          63.0722   81.3691   14.5852 C.ar    1  UNL1        0.0192
     10 C          62.9451   80.7576   13.2214 C.ar    1  UNL1        0.0032
     11 C          62.8286   81.6380   12.0126 C.ar    1  UNL1        0.0240
     12 C          62.8391   83.1299   12.1675 C.ar    1  UNL1        0.1376
     13 N          62.9662   83.7414   13.5312 N.ar    1  UNL1       -0.2253
     14 N          63.0058   85.1684   13.9916 N.ar    1  UNL1       -0.1694
     15 C          63.8295   87.6524   15.8341 C.3     1  UNL1        0.0064
     16 C          63.2262   86.3845   16.3618 C.3     1  UNL1        0.0421
     17 C          62.7024   86.3311   17.7663 C.3     1  UNL1        0.0064
     18 C          61.0746   86.7198    8.7208 C.3     1  UNL1        0.0810
     19 C          60.2146   86.3747    7.5413 C.3     1  UNL1        0.0266
     20 C          59.3776   87.4341    6.8878 C.3     1  UNL1        0.0726
     21 N          59.4007   88.8386    7.4138 N.3     1  UNL1       -0.2727
     22 C          60.2607   89.1838    8.5932 C.3     1  UNL1        0.0726
     23 C          61.0976   88.1244    9.2468 C.3     1  UNL1        0.0266
     24 C          58.5637   89.8981    6.7602 C.3     1  UNL1        0.0722
     25 C          59.1402   90.7347    5.6567 C.3     1  UNL1        0.0210
     26 C          60.6122   90.6892    5.3717 C.3     1  UNL1        0.0335
     27 C          61.1887   91.5258    4.2682 C.3     1  UNL1        0.1422
     28 O          60.2933   92.4079    3.4496 O.3     1  UNL1       -0.3538
     29 C          58.8213   92.4534    3.7346 C.3     1  UNL1        0.1422
     30 C          58.2448   91.6168    4.8381 C.3     1  UNL1        0.0335
@<TRIPOS>BOND
     1    15    16    1
     2    16    17    1
     3    16     6    1
     4     6     7   ar
     5     7     8   ar
     6     8     9   ar
     7     9    10   ar
     8    10    11   ar
     9    11    12   ar
    10    12     1    1
    11     1     2   ar
    12     2     3   ar
    13     3     4   ar
    14     4    18    1
    15    18    19    1
    16    19    20    1
    17    20    21    1
    18    21    24    1
    19    24    25    1
    20    25    26    1
    21    26    27    1
    22    27    28    1
    23    28    29    1
    24    29    30    1
    25    21    22    1
    26    22    23    1
    27     4     5   ar
    28    12    13   ar
    29    13    14   ar
    30    14     6   ar
    31    13     8   ar
    32     5     1   ar
    33    23    18    1
    34    30    25    1
@<TRIPOS>MOLECULE
*****
 30 34 0 0 0
SMALL
GASTEIGER

@<TRIPOS>ATOM
      1 C          64.3382   90.4768   13.2995 C.ar    1  UNL1        0.2673
      2 N          64.1076   89.0575   13.7268 N.ar    1  UNL1       -0.1056
      3 N          63.1483   88.4318   12.7582 N.ar    1  UNL1       -0.1114
      4 C          62.7860   89.4643   11.7322 C.ar    1  UNL1        0.2261
      5 O          63.5214   90.7282   12.0667 O.2     1  UNL1       -0.4182
      6 C          66.1430   94.4976   11.6907 C.ar    1  UNL1        0.0801
      7 C          66.8582   94.8041   12.9731 C.ar    1  UNL1        0.0356
      8 C          66.5738   93.6927   13.9396 C.ar    1  UNL1        0.0842
      9 C          67.0110   93.4569   15.3549 C.ar    1  UNL1        0.0192
     10 C          66.5573   92.2278   16.0851 C.ar    1  UNL1        0.0032
     11 C          65.6664   91.2344   15.3999 C.ar    1  UNL1        0.0240
     12 C          65.2292   91.4702   13.9846 C.ar    1  UNL1        0.1376
     13 N          65.6829   92.6993   13.2544 N.ar    1  UNL1       -0.2253
     14 N          65.4166   93.1968   11.8646 N.ar    1  UNL1       -0.1694
     15 C          65.2013   96.4961   10.3235 C.3     1  UNL1        0.0064
     16 C          66.1525   95.3435   10.4520 C.3     1  UNL1        0.0421
     17 C          67.1132   95.0366    9.3417 C.3     1  UNL1        0.0064
     18 C          61.8523   89.2676   10.5748 C.3     1  UNL1        0.0810
     19 C          61.9183   88.0076    9.7637 C.3     1  UNL1        0.0266
     20 C          60.9846   87.8109    8.6064 C.3     1  UNL1        0.0726
     21 N          59.9849   88.8742    8.2602 N.3     1  UNL1       -0.2727
     22 C          59.9189   90.1342    9.0713 C.3     1  UNL1        0.0726
     23 C          60.8526   90.3309   10.2286 C.3     1  UNL1        0.0266
     24 C          59.0511   88.6775    7.1028 C.3     1  UNL1        0.0722
     25 C          58.7830   89.8087    6.1548 C.3     1  UNL1        0.0210
     26 C          59.9260   90.5182    5.4914 C.3     1  UNL1        0.0335
     27 C          59.6579   91.6493    4.5434 C.3     1  UNL1        0.1422
     28 O          58.2468   92.0710    4.2589 O.3     1  UNL1       -0.3538
     29 C          57.1038   91.3615    4.9223 C.3     1  UNL1        0.1422
     30 C          57.3719   90.2304    5.8703 C.3     1  UNL1        0.0335
@<TRIPOS>BOND
     1    15    16    1
     2    16    17    1
     3    16     6    1
     4     6     7   ar
     5     7     8   ar
     6     8     9   ar
     7     9    10   ar
     8    10    11   ar
     9    11    12   ar
    10    12     1    1
    11     1     2   ar
    12     2     3   ar
    13     3     4   ar
    14     4    18    1
    15    18    19    1
    16    19    20    1
    17    20    21    1
    18    21    24    1
    19    24    25    1
    20    25    26    1
    21    26    27    1
    22    27    28    1
    23    28    29    1
    24    29    30    1
    25    21    22    1
    26    22    23    1
    27     4     5   ar
    28    12    13   ar
    29    13    14   ar
    30    14     6   ar
    31    13     8   ar
    32     5     1   ar
    33    23    18    1
    34    30    25    1
@<TRIPOS>MOLECULE
*****
 30 34 0 0 0
SMALL
GASTEIGER

@<TRIPOS>ATOM
      1 C          59.5164   89.9011    6.3699 C.ar    1  UNL1        0.2673
      2 N          58.2393   90.6471    6.1198 N.ar    1  UNL1       -0.1056
      3 N          58.4927   91.6486    5.0323 N.ar    1  UNL1       -0.1114
      4 C          59.9265   91.5217    4.6102 C.ar    1  UNL1        0.2261
      5 O          60.5591   90.4417    5.4369 O.2     1  UNL1       -0.4182
      6 C          62.1084   89.8573   10.2804 C.ar    1  UNL1        0.0801
      7 C          61.7336   88.4478   10.6307 C.ar    1  UNL1        0.0356
      8 C          60.8046   87.9377    9.5692 C.ar    1  UNL1        0.0842
      9 C          60.1144   86.6182    9.3889 C.ar    1  UNL1        0.0192
     10 C          59.2249   86.3930    8.2023 C.ar    1  UNL1        0.0032
     11 C          59.0256   87.4873    7.1960 C.ar    1  UNL1        0.0240
     12 C          59.7157   88.8068    7.3762 C.ar    1  UNL1        0.1376
     13 N          60.6052   89.0320    8.5628 N.ar    1  UNL1       -0.2253
     14 N          61.4110   90.2184    9.0024 N.ar    1  UNL1       -0.1694
     15 C          63.1361   90.5777   12.5552 C.3     1  UNL1        0.0064
     16 C          63.0204   90.7492   11.0696 C.3     1  UNL1        0.0421
     17 C          63.8168   91.8125   10.3731 C.3     1  UNL1        0.0064
     18 C          60.6080   92.3323    3.5480 C.3     1  UNL1        0.0810
     19 C          62.0242   92.0237    3.1619 C.3     1  UNL1        0.0266
     20 C          62.7056   92.8344    2.0997 C.3     1  UNL1        0.0726
     21 N          61.9709   93.9537    1.4236 N.3     1  UNL1       -0.2727
     22 C          60.5547   94.2624    1.8096 C.3     1  UNL1        0.0726
     23 C          59.8732   93.4517    2.8718 C.3     1  UNL1        0.0266
     24 C          62.6524   94.7645    0.3613 C.3     1  UNL1        0.0722
     25 C          62.6215   94.3068   -1.0669 C.3     1  UNL1        0.0210
     26 C          61.3320   94.3265   -1.8330 C.3     1  UNL1        0.0335
     27 C          61.3011   93.8689   -3.2612 C.3     1  UNL1        0.1422
     28 O          62.5596   93.3916   -3.9232 O.3     1  UNL1       -0.3538
     29 C          63.8491   93.3719   -3.1571 C.3     1  UNL1        0.1422
     30 C          63.8800   93.8295   -1.7289 C.3     1  UNL1        0.0335
@<TRIPOS>BOND
     1    15    16    1
     2    16    17    1
     3    16     6    1
     4     6     7   ar
     5     7     8   ar
     6     8     9   ar
     7     9    10   ar
     8    10    11   ar
     9    11    12   ar
    10    12     1    1
    11     1     2   ar
    12     2     3   ar
    13     3     4   ar
    14     4    18    1
    15    18    19    1
    16    19    20    1
    17    20    21    1
    18    21    24    1
    19    24    25    1
    20    25    26    1
    21    26    27    1
    22    27    28    1
    23    28    29    1
    24    29    30    1
    25    21    22    1
    26    22    23    1
    27     4     5   ar
    28    12    13   ar
    29    13    14   ar
    30    14     6   ar
    31    13     8   ar
    32     5     1   ar
    33    23    18    1
    34    30    25    1
@<TRIPOS>MOLECULE
*****
 30 34 0 0 0
SMALL
GASTEIGER

@<TRIPOS>ATOM
      1 C          61.8716   94.5145    1.4290 C.ar    1  UNL1        0.2673
      2 N          60.4507   94.7614    1.0166 N.ar    1  UNL1       -0.1056
      3 N          59.5642   93.9064    1.8728 N.ar    1  UNL1       -0.1114
      4 C          60.4372   93.1310    2.8144 C.ar    1  UNL1        0.2261
      5 O          61.8632   93.5069    2.5401 O.2     1  UNL1       -0.4182
      6 C          63.5021   94.3668   -2.9678 C.ar    1  UNL1        0.0801
      7 C          64.6814   95.2427   -2.6645 C.ar    1  UNL1        0.0356
      8 C          64.6225   95.6130   -1.2122 C.ar    1  UNL1        0.0842
      9 C          65.5188   96.4558   -0.3541 C.ar    1  UNL1        0.0192
     10 C          65.1993   96.6515    1.0984 C.ar    1  UNL1        0.0032
     11 C          63.9836   96.0044    1.6927 C.ar    1  UNL1        0.0240
     12 C          63.0873   95.1616    0.8346 C.ar    1  UNL1        0.1376
     13 N          63.4068   94.9659   -0.6178 N.ar    1  UNL1       -0.2253
     14 N          62.7144   94.1957   -1.7029 N.ar    1  UNL1       -0.1694
     15 C          63.9222   92.5669   -4.7937 C.3     1  UNL1        0.0064
     16 C          63.1691   93.7672   -4.3019 C.3     1  UNL1        0.0421
     17 C          62.0830   94.3680   -5.1441 C.3     1  UNL1        0.0064
     18 C          59.9669   92.1518    3.8487 C.3     1  UNL1        0.0810
     19 C          58.5183   92.1075    4.2358 C.3     1  UNL1        0.0266
     20 C          58.0481   91.1283    5.2701 C.3     1  UNL1        0.0726
     21 N          59.0262   90.1932    5.9172 N.3     1  UNL1       -0.2727
     22 C          60.4747   90.2374    5.5301 C.3     1  UNL1        0.0726
     23 C          60.9450   91.2167    4.4958 C.3     1  UNL1        0.0266
     24 C          58.5559   89.2139    6.9516 C.3     1  UNL1        0.0722
     25 C          59.5524   88.4970    7.8136 C.3     1  UNL1        0.0210
     26 C          59.7642   87.0214    7.6467 C.3     1  UNL1        0.0335
     27 C          60.7607   86.3045    8.5087 C.3     1  UNL1        0.1422
     28 O          61.5455   87.0631    9.5376 O.3     1  UNL1       -0.3538
     29 C          61.3337   88.5387    9.7045 C.3     1  UNL1        0.1422
     30 C          60.3372   89.2556    8.8425 C.3     1  UNL1        0.0335
@<TRIPOS>BOND
     1    15    16    1
     2    16    17    1
     3    16     6    1
     4     6     7   ar
     5     7     8   ar
     6     8     9   ar
     7     9    10   ar
     8    10    11   ar
     9    11    12   ar
    10    12     1    1
    11     1     2   ar
    12     2     3   ar
    13     3     4   ar
    14     4    18    1
    15    18    19    1
    16    19    20    1
    17    20    21    1
    18    21    24    1
    19    24    25    1
    20    25    26    1
    21    26    27    1
    22    27    28    1
    23    28    29    1
    24    29    30    1
    25    21    22    1
    26    22    23    1
    27     4     5   ar
    28    12    13   ar
    29    13    14   ar
    30    14     6   ar
    31    13     8   ar
    32     5     1   ar
    33    23    18    1
    34    30    25    1
@<TRIPOS>MOLECULE
*****
 30 34 0 0 0
SMALL
GASTEIGER

@<TRIPOS>ATOM
      1 C          60.5721   94.1399    0.8038 C.ar    1  UNL1        0.2673
      2 N          60.4559   95.2255    1.8323 N.ar    1  UNL1       -0.1056
      3 N          60.1030   94.5867    3.1428 N.ar    1  UNL1       -0.1114
      4 C          60.0012   93.1062    2.9242 C.ar    1  UNL1        0.2261
      5 O          60.2911   92.8301    1.4786 O.2     1  UNL1       -0.4182
      6 C          58.1808   92.8677   -3.0271 C.ar    1  UNL1        0.0801
      7 C          59.2039   93.4262   -3.9712 C.ar    1  UNL1        0.0356
      8 C          60.3125   94.0212   -3.1545 C.ar    1  UNL1        0.0842
      9 C          61.5859   94.7120   -3.5430 C.ar    1  UNL1        0.0192
     10 C          62.5215   95.2121   -2.4826 C.ar    1  UNL1        0.0032
     11 C          62.1836   95.0214   -1.0337 C.ar    1  UNL1        0.0240
     12 C          60.9101   94.3306   -0.6452 C.ar    1  UNL1        0.1376
     13 N          59.9745   93.8305   -1.7056 N.ar    1  UNL1       -0.2253
     14 N          58.6571   93.1176   -1.6269 N.ar    1  UNL1       -0.1694
     15 C          56.5642   91.9943   -4.8638 C.3     1  UNL1        0.0064
     16 C          56.9054   92.1801   -3.4150 C.3     1  UNL1        0.0421
     17 C          55.9711   91.6784   -2.3542 C.3     1  UNL1        0.0064
     18 C          59.6680   92.0817    3.9679 C.3     1  UNL1        0.0810
     19 C          58.2498   91.9115    4.4260 C.3     1  UNL1        0.0266
     20 C          57.9166   90.8871    5.4697 C.3     1  UNL1        0.0726
     21 N          59.0016   90.0327    6.0553 N.3     1  UNL1       -0.2727
     22 C          60.4197   90.2028    5.5972 C.3     1  UNL1        0.0726
     23 C          60.7529   91.2273    4.5535 C.3     1  UNL1        0.0266
     24 C          58.6684   89.0081    7.0990 C.3     1  UNL1        0.0722
     25 C          59.7500   88.4540    7.9783 C.3     1  UNL1        0.0210
     26 C          60.1468   87.0122    7.8610 C.3     1  UNL1        0.0335
     27 C          61.2284   86.4580    8.7402 C.3     1  UNL1        0.1422
     28 O          61.9134   87.3457    9.7367 O.3     1  UNL1       -0.3538
     29 C          61.5166   88.7875    9.8539 C.3     1  UNL1        0.1422
     30 C          60.4349   89.3416    8.9747 C.3     1  UNL1        0.0335
@<TRIPOS>BOND
     1    15    16    1
     2    16    17    1
     3    16     6    1
     4     6     7   ar
     5     7     8   ar
     6     8     9   ar
     7     9    10   ar
     8    10    11   ar
     9    11    12   ar
    10    12     1    1
    11     1     2   ar
    12     2     3   ar
    13     3     4   ar
    14     4    18    1
    15    18    19    1
    16    19    20    1
    17    20    21    1
    18    21    24    1
    19    24    25    1
    20    25    26    1
    21    26    27    1
    22    27    28    1
    23    28    29    1
    24    29    30    1
    25    21    22    1
    26    22    23    1
    27     4     5   ar
    28    12    13   ar
    29    13    14   ar
    30    14     6   ar
    31    13     8   ar
    32     5     1   ar
    33    23    18    1
    34    30    25    1
@<TRIPOS>MOLECULE
*****
 30 34 0 0 0
SMALL
GASTEIGER

@<TRIPOS>ATOM
      1 C          64.0772   89.2484   13.7416 C.ar    1  UNL1        0.2673
      2 N          63.8497   89.1351   15.2199 N.ar    1  UNL1       -0.1056
      3 N          63.5855   87.6934   15.5391 N.ar    1  UNL1       -0.1114
      4 C          63.6498   86.9157   14.2581 C.ar    1  UNL1        0.2261
      5 O          63.9537   87.8767   13.1472 O.2     1  UNL1       -0.4182
      6 C          67.1846   92.6356   14.6813 C.ar    1  UNL1        0.0801
      7 C          66.8127   93.4471   13.4758 C.ar    1  UNL1        0.0356
      8 C          65.7277   92.7163   12.7418 C.ar    1  UNL1        0.0842
      9 C          64.9731   93.0378   11.4860 C.ar    1  UNL1        0.0192
     10 C          63.9198   92.0962   10.9820 C.ar    1  UNL1        0.0032
     11 C          63.6212   90.8330   11.7339 C.ar    1  UNL1        0.0240
     12 C          64.3758   90.5115   12.9897 C.ar    1  UNL1        0.1376
     13 N          65.4290   91.4531   13.4937 N.ar    1  UNL1       -0.2253
     14 N          66.3295   91.4033   14.6923 N.ar    1  UNL1       -0.1694
     15 C          68.7265   94.4051   15.7955 C.3     1  UNL1        0.0064
     16 C          68.2284   92.9937   15.6973 C.3     1  UNL1        0.0421
     17 C          68.7740   91.9403   16.6152 C.3     1  UNL1        0.0064
     18 C          63.4460   85.4367   14.1133 C.3     1  UNL1        0.0810
     19 C          63.8785   84.5091   15.2100 C.3     1  UNL1        0.0266
     20 C          63.6746   83.0302   15.0652 C.3     1  UNL1        0.0726
     21 N          63.0384   82.4787   13.8238 N.3     1  UNL1       -0.2727
     22 C          62.6060   83.4062   12.7272 C.3     1  UNL1        0.0726
     23 C          62.8098   84.8852   12.8720 C.3     1  UNL1        0.0266
     24 C          62.8346   80.9996   13.6790 C.3     1  UNL1        0.0722
     25 C          62.8452   80.3709   12.3172 C.3     1  UNL1        0.0210
     26 C          62.4932   78.9215   12.1575 C.3     1  UNL1        0.0335
     27 C          62.5038   78.2928   10.7957 C.3     1  UNL1        0.1422
     28 O          62.8665   79.1133    9.5935 O.3     1  UNL1       -0.3538
     29 C          63.2186   80.5626    9.7532 C.3     1  UNL1        0.1422
     30 C          63.2079   81.1914   11.1151 C.3     1  UNL1        0.0335
@<TRIPOS>BOND
     1    15    16    1
     2    16    17    1
     3    16     6    1
     4     6     7   ar
     5     7     8   ar
     6     8     9   ar
     7     9    10   ar
     8    10    11   ar
     9    11    12   ar
    10    12     1    1
    11     1     2   ar
    12     2     3   ar
    13     3     4   ar
    14     4    18    1
    15    18    19    1
    16    19    20    1
    17    20    21    1
    18    21    24    1
    19    24    25    1
    20    25    26    1
    21    26    27    1
    22    27    28    1
    23    28    29    1
    24    29    30    1
    25    21    22    1
    26    22    23    1
    27     4     5   ar
    28    12    13   ar
    29    13    14   ar
    30    14     6   ar
    31    13     8   ar
    32     5     1   ar
    33    23    18    1
    34    30    25    1
@<TRIPOS>MOLECULE
*****
 30 34 0 0 0
SMALL
GASTEIGER

@<TRIPOS>ATOM
      1 C          64.7574   90.4493   13.8054 C.ar    1  UNL1        0.2673
      2 N          63.6643   90.5050   12.7797 N.ar    1  UNL1       -0.1056
      3 N          63.1308   89.1153   12.5948 N.ar    1  UNL1       -0.1114
      4 C          63.8942   88.2007   13.5062 C.ar    1  UNL1        0.2261
      5 O          64.8995   89.0251   14.2543 O.2     1  UNL1       -0.4182
      6 C          66.0825   94.3444   11.5505 C.ar    1  UNL1        0.0801
      7 C          66.8085   94.9031   12.7383 C.ar    1  UNL1        0.0356
      8 C          66.6744   93.9236   13.8664 C.ar    1  UNL1        0.0842
      9 C          67.1843   93.9413   15.2770 C.ar    1  UNL1        0.0192
     10 C          66.8852   92.7950   16.1969 C.ar    1  UNL1        0.0032
     11 C          66.0763   91.6310   15.7064 C.ar    1  UNL1        0.0240
     12 C          65.5663   91.6133   14.2959 C.ar    1  UNL1        0.1376
     13 N          65.8654   92.7596   13.3759 N.ar    1  UNL1       -0.2253
     14 N          65.4996   93.0197   11.9446 N.ar    1  UNL1       -0.1694
     15 C          64.9675   96.1000    9.9933 C.3     1  UNL1        0.0064
     16 C          65.9608   94.9961   10.2050 C.3     1  UNL1        0.0421
     17 C          66.8323   94.5438    9.0710 C.3     1  UNL1        0.0064
     18 C          63.6885   86.7213   13.6451 C.3     1  UNL1        0.0810
     19 C          64.3496   85.9741   14.7652 C.3     1  UNL1        0.0266
     20 C          64.1438   84.4948   14.9040 C.3     1  UNL1        0.0726
     21 N          63.2771   83.7628   13.9228 N.3     1  UNL1       -0.2727
     22 C          62.6160   84.5100   12.8027 C.3     1  UNL1        0.0726
     23 C          62.8217   85.9893   12.6639 C.3     1  UNL1        0.0266
     24 C          63.0713   82.2834   14.0616 C.3     1  UNL1        0.0722
     25 C          63.0087   81.4169   12.8388 C.3     1  UNL1        0.0210
     26 C          62.5327   79.9986   12.9482 C.3     1  UNL1        0.0335
     27 C          62.4701   79.1321   11.7253 C.3     1  UNL1        0.1422
     28 O          62.8834   79.6838   10.3932 O.3     1  UNL1       -0.3538
     29 C          63.3594   81.1021   10.2838 C.3     1  UNL1        0.1422
     30 C          63.4220   81.9686   11.5066 C.3     1  UNL1        0.0335
@<TRIPOS>BOND
     1    15    16    1
     2    16    17    1
     3    16     6    1
     4     6     7   ar
     5     7     8   ar
     6     8     9   ar
     7     9    10   ar
     8    10    11   ar
     9    11    12   ar
    10    12     1    1
    11     1     2   ar
    12     2     3   ar
    13     3     4   ar
    14     4    18    1
    15    18    19    1
    16    19    20    1
    17    20    21    1
    18    21    24    1
    19    24    25    1
    20    25    26    1
    21    26    27    1
    22    27    28    1
    23    28    29    1
    24    29    30    1
    25    21    22    1
    26    22    23    1
    27     4     5   ar
    28    12    13   ar
    29    13    14   ar
    30    14     6   ar
    31    13     8   ar
    32     5     1   ar
    33    23    18    1
    34    30    25    1
@<TRIPOS>MOLECULE
*****
 30 34 0 0 0
SMALL
GASTEIGER

@<TRIPOS>ATOM
      1 C          60.3156   87.6185    8.9038 C.ar    1  UNL1        0.2673
      2 N          58.9468   87.1728    8.4820 N.ar    1  UNL1       -0.1056
      3 N          58.4940   88.0628    7.3626 N.ar    1  UNL1       -0.1114
      4 C          59.5829   89.0585    7.0926 C.ar    1  UNL1        0.2261
      5 O          60.7086   88.7839    8.0451 O.2     1  UNL1       -0.4182
      6 C          63.2227   89.6609   11.9680 C.ar    1  UNL1        0.0801
      7 C          63.5893   88.3672   12.6327 C.ar    1  UNL1        0.0356
      8 C          62.8396   87.2644   11.9458 C.ar    1  UNL1        0.0842
      9 C          62.8054   85.7819   12.1714 C.ar    1  UNL1        0.0192
     10 C          61.9412   84.9116   11.3079 C.ar    1  UNL1        0.0032
     11 C          61.1113   85.5238   10.2186 C.ar    1  UNL1        0.0240
     12 C          61.1455   87.0063    9.9930 C.ar    1  UNL1        0.1376
     13 N          62.0096   87.8766   10.8566 N.ar    1  UNL1       -0.2253
     14 N          62.2465   89.3577   10.8703 N.ar    1  UNL1       -0.1694
     15 C          64.0445   92.0227   11.2633 C.3     1  UNL1        0.0064
     16 C          63.7414   91.0194   12.3363 C.3     1  UNL1        0.0421
     17 C          63.9570   91.3744   13.7776 C.3     1  UNL1        0.0064
     18 C          59.5515   90.1390    6.0527 C.3     1  UNL1        0.0810
     19 C          58.2440   90.7532    5.6485 C.3     1  UNL1        0.0266
     20 C          58.2128   91.8337    4.6086 C.3     1  UNL1        0.0726
     21 N          59.4888   92.3001    3.9729 N.3     1  UNL1       -0.2727
     22 C          60.7962   91.6859    4.3770 C.3     1  UNL1        0.0726
     23 C          60.8276   90.6053    5.4170 C.3     1  UNL1        0.0266
     24 C          59.4575   93.3807    2.9329 C.3     1  UNL1        0.0722
     25 C          60.2923   93.2529    1.6932 C.3     1  UNL1        0.0210
     26 C          61.7201   93.7127    1.6998 C.3     1  UNL1        0.0335
     27 C          62.5549   93.5849    0.4601 C.3     1  UNL1        0.1422
     28 O          61.9620   92.9974   -0.7861 O.3     1  UNL1       -0.3538
     29 C          60.5342   92.5376   -0.7927 C.3     1  UNL1        0.1422
     30 C          59.6994   92.6653    0.4470 C.3     1  UNL1        0.0335
@<TRIPOS>BOND
     1    15    16    1
     2    16    17    1
     3    16     6    1
     4     6     7   ar
     5     7     8   ar
     6     8     9   ar
     7     9    10   ar
     8    10    11   ar
     9    11    12   ar
    10    12     1    1
    11     1     2   ar
    12     2     3   ar
    13     3     4   ar
    14     4    18    1
    15    18    19    1
    16    19    20    1
    17    20    21    1
    18    21    24    1
    19    24    25    1
    20    25    26    1
    21    26    27    1
    22    27    28    1
    23    28    29    1
    24    29    30    1
    25    21    22    1
    26    22    23    1
    27     4     5   ar
    28    12    13   ar
    29    13    14   ar
    30    14     6   ar
    31    13     8   ar
    32     5     1   ar
    33    23    18    1
    34    30    25    1
@<TRIPOS>MOLECULE
*****
 30 34 0 0 0
SMALL
GASTEIGER

@<TRIPOS>ATOM
      1 C          64.0895   90.8621   12.7887 C.ar    1  UNL1        0.2673
      2 N          62.8498   91.1668   12.0012 N.ar    1  UNL1       -0.1056
      3 N          62.2443   89.8647   11.5676 N.ar    1  UNL1       -0.1114
      4 C          63.1099   88.7552   12.0871 C.ar    1  UNL1        0.2261
      5 O          64.2503   89.3717   12.8417 O.2     1  UNL1       -0.4182
      6 C          65.9866   94.7380   10.9472 C.ar    1  UNL1        0.0801
      7 C          66.7141   95.0997   12.2081 C.ar    1  UNL1        0.0356
      8 C          66.4062   94.0530   13.2375 C.ar    1  UNL1        0.0842
      9 C          66.8430   93.8880   14.6629 C.ar    1  UNL1        0.0192
     10 C          66.3619   92.7144   15.4636 C.ar    1  UNL1        0.0032
     11 C          65.4441   91.7057   14.8389 C.ar    1  UNL1        0.0240
     12 C          65.0073   91.8707   13.4134 C.ar    1  UNL1        0.1376
     13 N          65.4884   93.0443   12.6127 N.ar    1  UNL1       -0.2253
     14 N          65.2290   93.4677   11.1973 N.ar    1  UNL1       -0.1694
     15 C          66.9414   95.1005    8.5583 C.3     1  UNL1        0.0064
     16 C          66.0121   95.5109    9.6619 C.3     1  UNL1        0.0421
     17 C          65.1083   96.6941    9.4801 C.3     1  UNL1        0.0064
     18 C          62.8762   87.2871   11.8870 C.3     1  UNL1        0.0810
     19 C          62.1456   86.8030   10.6697 C.3     1  UNL1        0.0266
     20 C          61.9119   85.3349   10.4697 C.3     1  UNL1        0.0726
     21 N          62.4089   84.3510   11.4870 N.3     1  UNL1       -0.2727
     22 C          63.1395   84.8351   12.7042 C.3     1  UNL1        0.0726
     23 C          63.3732   86.3032   12.9042 C.3     1  UNL1        0.0266
     24 C          62.1752   82.8828   11.2869 C.3     1  UNL1        0.0722
     25 C          62.5311   81.9118   12.3735 C.3     1  UNL1        0.0210
     26 C          61.4486   81.1754   13.1054 C.3     1  UNL1        0.0335
     27 C          61.8045   80.2044   14.1920 C.3     1  UNL1        0.1422
     28 O          63.2430   79.9699   14.5466 O.3     1  UNL1       -0.3538
     29 C          64.3255   80.7064   13.8147 C.3     1  UNL1        0.1422
     30 C          63.9696   81.6773   12.7282 C.3     1  UNL1        0.0335
@<TRIPOS>BOND
     1    15    16    1
     2    16    17    1
     3    16     6    1
     4     6     7   ar
     5     7     8   ar
     6     8     9   ar
     7     9    10   ar
     8    10    11   ar
     9    11    12   ar
    10    12     1    1
    11     1     2   ar
    12     2     3   ar
    13     3     4   ar
    14     4    18    1
    15    18    19    1
    16    19    20    1
    17    20    21    1
    18    21    24    1
    19    24    25    1
    20    25    26    1
    21    26    27    1
    22    27    28    1
    23    28    29    1
    24    29    30    1
    25    21    22    1
    26    22    23    1
    27     4     5   ar
    28    12    13   ar
    29    13    14   ar
    30    14     6   ar
    31    13     8   ar
    32     5     1   ar
    33    23    18    1
    34    30    25    1
