@<TRIPOS>MOLECULE
*****
 34 39 0 0 0
SMALL
GASTEIGER

@<TRIPOS>ATOM
      1 C          62.0852   86.5353   10.2405 C.ar    1  UNL1        0.1095
      2 N          61.9779   85.3169    9.3721 N.ar    1  UNL1       -0.1677
      3 N          61.1598   85.6769    8.1675 N.ar    1  UNL1       -0.2319
      4 C          60.8026   84.7575    7.0374 C.3     1  UNL1        0.1554
      5 C          60.7614   87.1177    8.2914 C.ar    1  UNL1        0.1654
      6 N          59.9518   88.0152    7.4031 N.ar    1  UNL1       -0.2050
      7 C          59.7142   89.4432    7.7960 C.ar    1  UNL1        0.2014
      8 N          60.2861   89.9737    9.0772 N.ar    1  UNL1       -0.2089
      9 C          61.0957   89.0762    9.9655 C.ar    1  UNL1        0.1379
     10 C          61.3334   87.6482    9.5726 C.ar    1  UNL1        0.0865
     11 C          63.3426   85.4683   12.3442 C.ar    1  UNL1        0.0809
     12 C          62.8160   86.6249   11.5474 C.ar    1  UNL1        0.0577
     13 C          63.1485   87.8868   12.2868 C.ar    1  UNL1        0.1231
     14 N          63.8806   87.5103   13.5407 N.ar    1  UNL1       -0.1676
     15 N          64.0005   86.0155   13.5761 N.ar    1  UNL1       -0.2488
     16 C          64.6623   85.2093   14.6543 C.3     1  UNL1        0.1537
     17 C          62.8962   79.6710   10.8636 C.3     1  UNL1        0.0310
     18 C          63.0078   81.1203   11.2338 C.ar    1  UNL1       -0.0218
     19 C          63.8605   82.0408   10.4119 C.ar    1  UNL1       -0.0042
     20 C          63.9721   83.4901   10.7821 C.ar    1  UNL1        0.0012
     21 C          63.2309   84.0190   11.9741 C.ar    1  UNL1        0.0174
     22 C          62.3782   83.0985   12.7960 C.ar    1  UNL1        0.0012
     23 C          62.2666   81.6492   12.4259 C.ar    1  UNL1       -0.0042
     24 N          61.6677   89.6067   11.2467 N.pl3   1  UNL1       -0.2917
     25 C          61.0444   89.4890   12.6060 C.3     1  UNL1        0.0937
     26 C          61.9548   90.1576   13.5929 C.3     1  UNL1        0.0391
     27 C          63.1408   90.6886   12.8436 C.3     1  UNL1        0.0790
     28 C          62.9633   90.3481   11.3936 C.3     1  UNL1        0.1081
     29 N          64.3007   91.4299   13.4396 N.3     1  UNL1       -0.2723
     30 C          65.1412   92.3251   12.5782 C.3     1  UNL1        0.0721
     31 C          66.3010   93.0663   13.1743 C.3     1  UNL1        0.0174
     32 C          66.6203   92.9124   14.6318 C.3     1  UNL1        0.0029
     33 C          65.7798   92.0172   15.4932 C.3     1  UNL1        0.0174
     34 C          64.6199   91.2759   14.8971 C.3     1  UNL1        0.0721
@<TRIPOS>BOND
     1    17    18    1
     2    18    19   ar
     3    19    20   ar
     4    20    21   ar
     5    21    11    1
     6    11    12   ar
     7    12     1    1
     8     1     2   ar
     9     2     3   ar
    10     3     4    1
    11     3     5   ar
    12     5     6   ar
    13     6     7   ar
    14     7     8   ar
    15     8     9   ar
    16     9    24    1
    17    24    25    1
    18    25    26    1
    19    26    27    1
    20    27    29    1
    21    29    30    1
    22    30    31    1
    23    31    32    1
    24    32    33    1
    25    33    34    1
    26    27    28    1
    27     9    10   ar
    28    12    13   ar
    29    13    14   ar
    30    14    15   ar
    31    15    16    1
    32    21    22   ar
    33    22    23   ar
    34    23    18   ar
    35    15    11   ar
    36    10     1   ar
    37    10     5   ar
    38    28    24    1
    39    34    29    1
@<TRIPOS>MOLECULE
*****
 34 39 0 0 0
SMALL
GASTEIGER

@<TRIPOS>ATOM
      1 C          62.5051   86.9227   11.3762 C.ar    1  UNL1        0.1095
      2 N          62.1634   85.7660   10.4846 N.ar    1  UNL1       -0.1677
      3 N          61.3161   86.2824    9.3597 N.ar    1  UNL1       -0.2319
      4 C          60.7501   85.4662    8.2356 C.3     1  UNL1        0.1554
      5 C          61.1341   87.7583    9.5561 C.ar    1  UNL1        0.1654
      6 N          60.3942   88.7929    8.7611 N.ar    1  UNL1       -0.2050
      7 C          60.3892   90.2233    9.2125 C.ar    1  UNL1        0.2014
      8 N          61.1240   90.6191   10.4589 N.ar    1  UNL1       -0.2089
      9 C          61.8639   89.5845   11.2538 C.ar    1  UNL1        0.1379
     10 C          61.8689   88.1541   10.8025 C.ar    1  UNL1        0.0865
     11 C          63.8132   85.6098   13.3024 C.ar    1  UNL1        0.0809
     12 C          63.3368   86.8594   12.6229 C.ar    1  UNL1        0.0577
     13 C          63.8383   88.0343   13.4090 C.ar    1  UNL1        0.1231
     14 N          64.6246   87.5111   14.5743 N.ar    1  UNL1       -0.1676
     15 N          64.6091   86.0126   14.5083 N.ar    1  UNL1       -0.2488
     16 C          65.2729   85.0804   15.4782 C.3     1  UNL1        0.1537
     17 C          62.7261   79.9875   11.5115 C.3     1  UNL1        0.0310
     18 C          62.9979   81.3930   11.9592 C.ar    1  UNL1       -0.0218
     19 C          62.2591   81.9620   13.1341 C.ar    1  UNL1       -0.0042
     20 C          62.5309   83.3676   13.5818 C.ar    1  UNL1        0.0012
     21 C          63.5415   84.2042   12.8546 C.ar    1  UNL1        0.0174
     22 C          64.2803   83.6352   11.6797 C.ar    1  UNL1        0.0012
     23 C          64.0085   82.2297   11.2320 C.ar    1  UNL1       -0.0042
     24 N          62.5987   89.9803   12.5002 N.pl3   1  UNL1       -0.2917
     25 C          62.1249   89.7694   13.9076 C.3     1  UNL1        0.0937
     26 C          63.1697   90.3152   14.8352 C.3     1  UNL1        0.0391
     27 C          64.2893   90.8635   14.0010 C.3     1  UNL1        0.0790
     28 C          63.9364   90.6564   12.5579 C.3     1  UNL1        0.1081
     29 N          65.5419   91.5059   14.5190 N.3     1  UNL1       -0.2723
     30 C          65.5488   92.1527   15.8724 C.3     1  UNL1        0.0721
     31 C          66.8013   92.7951   16.3902 C.3     1  UNL1        0.0174
     32 C          68.0471   92.7908   15.5548 C.3     1  UNL1        0.0029
     33 C          68.0403   92.1441   14.2014 C.3     1  UNL1        0.0174
     34 C          66.7877   91.5016   13.6835 C.3     1  UNL1        0.0721
@<TRIPOS>BOND
     1    17    18    1
     2    18    19   ar
     3    19    20   ar
     4    20    21   ar
     5    21    11    1
     6    11    12   ar
     7    12     1    1
     8     1     2   ar
     9     2     3   ar
    10     3     4    1
    11     3     5   ar
    12     5     6   ar
    13     6     7   ar
    14     7     8   ar
    15     8     9   ar
    16     9    24    1
    17    24    25    1
    18    25    26    1
    19    26    27    1
    20    27    29    1
    21    29    30    1
    22    30    31    1
    23    31    32    1
    24    32    33    1
    25    33    34    1
    26    27    28    1
    27     9    10   ar
    28    12    13   ar
    29    13    14   ar
    30    14    15   ar
    31    15    16    1
    32    21    22   ar
    33    22    23   ar
    34    23    18   ar
    35    15    11   ar
    36    10     1   ar
    37    10     5   ar
    38    28    24    1
    39    34    29    1
@<TRIPOS>MOLECULE
*****
 34 39 0 0 0
SMALL
GASTEIGER

@<TRIPOS>ATOM
      1 C          62.7443   85.6719   12.4092 C.ar    1  UNL1        0.1095
      2 N          62.3798   84.4650   11.5967 N.ar    1  UNL1       -0.1677
      3 N          62.8183   83.2467   12.3540 N.ar    1  UNL1       -0.2319
      4 C          62.6507   81.8241   11.9089 C.3     1  UNL1        0.1554
      5 C          63.4538   83.7007   13.6346 C.ar    1  UNL1        0.1654
      6 N          64.0682   82.9430   14.7740 N.ar    1  UNL1       -0.2050
      7 C          64.6369   83.6841   15.9475 C.ar    1  UNL1        0.2014
      8 N          64.5912   85.1830   15.9817 N.ar    1  UNL1       -0.2089
      9 C          63.9768   85.9408   14.8423 C.ar    1  UNL1        0.1379
     10 C          63.4081   85.1997   13.6687 C.ar    1  UNL1        0.0865
     11 C          62.1210   87.5968   10.6624 C.ar    1  UNL1        0.0809
     12 C          62.4898   87.1005   12.0291 C.ar    1  UNL1        0.0577
     13 C          62.5592   88.2834   12.9487 C.ar    1  UNL1        0.1231
     14 N          62.2334   89.5109   12.1505 N.ar    1  UNL1       -0.1676
     15 N          61.9626   89.0866   10.7375 N.ar    1  UNL1       -0.2488
     16 C          61.5975   89.9929    9.5993 C.3     1  UNL1        0.1537
     17 C          61.4049   84.2173    5.7567 C.3     1  UNL1        0.0310
     18 C          61.5840   85.0622    6.9831 C.ar    1  UNL1       -0.0218
     19 C          60.4142   85.8016    7.5618 C.ar    1  UNL1       -0.0042
     20 C          60.5933   86.6465    8.7882 C.ar    1  UNL1        0.0012
     21 C          61.9421   86.7519    9.4360 C.ar    1  UNL1        0.0174
     22 C          63.1119   86.0125    8.8573 C.ar    1  UNL1        0.0012
     23 C          62.9328   85.1676    7.6309 C.ar    1  UNL1       -0.0042
     24 N          63.9311   87.4397   14.8764 N.pl3   1  UNL1       -0.2917
     25 C          62.9526   88.2746   15.6481 C.3     1  UNL1        0.0937
     26 C          63.2726   89.7178   15.3935 C.3     1  UNL1        0.0391
     27 C          64.4489   89.7749   14.4644 C.3     1  UNL1        0.0790
     28 C          64.8558   88.3669   14.1449 C.3     1  UNL1        0.1081
     29 N          65.1033   91.0210   13.9460 N.3     1  UNL1       -0.2723
     30 C          64.7809   91.5201   12.5687 C.3     1  UNL1        0.0721
     31 C          65.4353   92.7662   12.0503 C.3     1  UNL1        0.0174
     32 C          66.4122   93.5133   12.9091 C.3     1  UNL1        0.0029
     33 C          66.7346   93.0142   14.2863 C.3     1  UNL1        0.0174
     34 C          66.0802   91.7681   14.8048 C.3     1  UNL1        0.0721
@<TRIPOS>BOND
     1    17    18    1
     2    18    19   ar
     3    19    20   ar
     4    20    21   ar
     5    21    11    1
     6    11    12   ar
     7    12     1    1
     8     1     2   ar
     9     2     3   ar
    10     3     4    1
    11     3     5   ar
    12     5     6   ar
    13     6     7   ar
    14     7     8   ar
    15     8     9   ar
    16     9    24    1
    17    24    25    1
    18    25    26    1
    19    26    27    1
    20    27    29    1
    21    29    30    1
    22    30    31    1
    23    31    32    1
    24    32    33    1
    25    33    34    1
    26    27    28    1
    27     9    10   ar
    28    12    13   ar
    29    13    14   ar
    30    14    15   ar
    31    15    16    1
    32    21    22   ar
    33    22    23   ar
    34    23    18   ar
    35    15    11   ar
    36    10     1   ar
    37    10     5   ar
    38    28    24    1
    39    34    29    1
@<TRIPOS>MOLECULE
*****
 34 39 0 0 0
SMALL
GASTEIGER

@<TRIPOS>ATOM
      1 C          61.4135   87.9889   11.6993 C.ar    1  UNL1        0.1095
      2 N          60.8456   89.3128   12.1173 N.ar    1  UNL1       -0.1677
      3 N          60.0547   89.8618   10.9670 N.ar    1  UNL1       -0.2319
      4 C          59.3147   91.1664   10.9487 C.3     1  UNL1        0.1554
      5 C          60.1339   88.8772    9.8381 C.ar    1  UNL1        0.1654
      6 N          59.5498   88.8852    8.4565 N.ar    1  UNL1       -0.2050
      7 C          59.8055   87.7356    7.5276 C.ar    1  UNL1        0.2014
      8 N          60.6453   86.5780    7.9802 N.ar    1  UNL1       -0.2089
      9 C          61.2294   86.5701    9.3618 C.ar    1  UNL1        0.1379
     10 C          60.9737   87.7197   10.2907 C.ar    1  UNL1        0.0865
     11 C          63.4875   87.5063   13.3150 C.ar    1  UNL1        0.0809
     12 C          62.2708   87.0917   12.5420 C.ar    1  UNL1        0.0577
     13 C          62.0618   85.6224   12.7596 C.ar    1  UNL1        0.1231
     14 N          63.1494   85.1288   13.6671 N.ar    1  UNL1       -0.1676
     15 N          64.0305   86.2932   14.0103 N.ar    1  UNL1       -0.2488
     16 C          65.2421   86.2518   14.8939 C.3     1  UNL1        0.1537
     17 C          65.7801   93.0447   13.5792 C.3     1  UNL1        0.0310
     18 C          65.2070   91.6601   13.5132 C.ar    1  UNL1       -0.0218
     19 C          64.4417   91.2223   12.2997 C.ar    1  UNL1       -0.0042
     20 C          63.8685   89.8377   12.2337 C.ar    1  UNL1        0.0012
     21 C          64.0607   88.8909   13.3811 C.ar    1  UNL1        0.0174
     22 C          64.8260   89.3287   14.5946 C.ar    1  UNL1        0.0012
     23 C          65.3992   90.7133   14.6606 C.ar    1  UNL1       -0.0042
     24 N          62.0691   85.4125    9.8144 N.pl3   1  UNL1       -0.2917
     25 C          63.5219   85.2031    9.5054 C.3     1  UNL1        0.0937
     26 C          63.9543   83.9223   10.1555 C.3     1  UNL1        0.0391
     27 C          62.7686   83.3401   10.8663 C.3     1  UNL1        0.0790
     28 C          61.6036   84.2611   10.6555 C.3     1  UNL1        0.1081
     29 N          62.7511   82.0614   11.6503 N.3     1  UNL1       -0.2723
     30 C          62.8661   80.7449   10.9406 C.3     1  UNL1        0.0721
     31 C          62.8485   79.4663   11.7247 C.3     1  UNL1        0.0174
     32 C          62.7160   79.5041   13.2183 C.3     1  UNL1        0.0029
     33 C          62.6009   80.8206   13.9279 C.3     1  UNL1        0.0174
     34 C          62.6185   82.0993   13.1439 C.3     1  UNL1        0.0721
@<TRIPOS>BOND
     1    17    18    1
     2    18    19   ar
     3    19    20   ar
     4    20    21   ar
     5    21    11    1
     6    11    12   ar
     7    12     1    1
     8     1     2   ar
     9     2     3   ar
    10     3     4    1
    11     3     5   ar
    12     5     6   ar
    13     6     7   ar
    14     7     8   ar
    15     8     9   ar
    16     9    24    1
    17    24    25    1
    18    25    26    1
    19    26    27    1
    20    27    29    1
    21    29    30    1
    22    30    31    1
    23    31    32    1
    24    32    33    1
    25    33    34    1
    26    27    28    1
    27     9    10   ar
    28    12    13   ar
    29    13    14   ar
    30    14    15   ar
    31    15    16    1
    32    21    22   ar
    33    22    23   ar
    34    23    18   ar
    35    15    11   ar
    36    10     1   ar
    37    10     5   ar
    38    28    24    1
    39    34    29    1
@<TRIPOS>MOLECULE
*****
 34 39 0 0 0
SMALL
GASTEIGER

@<TRIPOS>ATOM
      1 C          61.7036   86.9551   11.6356 C.ar    1  UNL1        0.1095
      2 N          62.4749   86.6148   12.8763 N.ar    1  UNL1       -0.1677
      3 N          63.4272   85.5057   12.5404 N.ar    1  UNL1       -0.2319
      4 C          64.3928   84.8558   13.4866 C.3     1  UNL1        0.1554
      5 C          63.2445   85.1605   11.0921 C.ar    1  UNL1        0.1654
      6 N          63.9105   84.1462   10.2103 N.ar    1  UNL1       -0.2050
      7 C          63.5112   84.0277    8.7693 C.ar    1  UNL1        0.2014
      8 N          62.4460   84.9235    8.2101 N.ar    1  UNL1       -0.2089
      9 C          61.7800   85.9378    9.0919 C.ar    1  UNL1        0.1379
     10 C          62.1792   86.0563   10.5329 C.ar    1  UNL1        0.0865
     11 C          60.8658   89.4921   11.5533 C.ar    1  UNL1        0.0809
     12 C          60.6429   88.0092   11.5181 C.ar    1  UNL1        0.0577
     13 C          59.1730   87.7655   11.3449 C.ar    1  UNL1        0.1231
     14 N          58.4874   89.0977   11.2730 N.ar    1  UNL1       -0.1676
     15 N          59.5337   90.1648   11.4018 N.ar    1  UNL1       -0.2488
     16 C          59.2906   91.6449   11.3826 C.3     1  UNL1        0.1537
     17 C          66.1568   92.2494   12.1882 C.3     1  UNL1        0.0310
     18 C          64.8341   91.5601   12.0295 C.ar    1  UNL1       -0.0218
     19 C          64.1205   91.6010   10.7108 C.ar    1  UNL1       -0.0042
     20 C          62.7977   90.9117   10.5521 C.ar    1  UNL1        0.0012
     21 C          62.1886   90.1814   11.7122 C.ar    1  UNL1        0.0174
     22 C          62.9022   90.1404   13.0309 C.ar    1  UNL1        0.0012
     23 C          64.2249   90.8298   13.1895 C.ar    1  UNL1       -0.0042
     24 N          60.7147   86.8336    8.5327 N.pl3   1  UNL1       -0.2917
     25 C          59.2487   86.7595    8.8416 C.3     1  UNL1        0.0937
     26 C          58.5563   87.8409    8.0662 C.3     1  UNL1        0.0391
     27 C          59.5944   88.5834    7.2781 C.3     1  UNL1        0.0790
     28 C          60.9283   87.9608    7.5664 C.3     1  UNL1        0.1081
     29 N          59.3428   89.7445    6.3625 N.3     1  UNL1       -0.2723
     30 C          57.9411   90.2237    6.1267 C.3     1  UNL1        0.0721
     31 C          57.6895   91.3848    5.2111 C.3     1  UNL1        0.0174
     32 C          58.8396   92.0668    4.5312 C.3     1  UNL1        0.0029
     33 C          60.2412   91.5876    4.7670 C.3     1  UNL1        0.0174
     34 C          60.4929   90.4264    5.6826 C.3     1  UNL1        0.0721
@<TRIPOS>BOND
     1    17    18    1
     2    18    19   ar
     3    19    20   ar
     4    20    21   ar
     5    21    11    1
     6    11    12   ar
     7    12     1    1
     8     1     2   ar
     9     2     3   ar
    10     3     4    1
    11     3     5   ar
    12     5     6   ar
    13     6     7   ar
    14     7     8   ar
    15     8     9   ar
    16     9    24    1
    17    24    25    1
    18    25    26    1
    19    26    27    1
    20    27    29    1
    21    29    30    1
    22    30    31    1
    23    31    32    1
    24    32    33    1
    25    33    34    1
    26    27    28    1
    27     9    10   ar
    28    12    13   ar
    29    13    14   ar
    30    14    15   ar
    31    15    16    1
    32    21    22   ar
    33    22    23   ar
    34    23    18   ar
    35    15    11   ar
    36    10     1   ar
    37    10     5   ar
    38    28    24    1
    39    34    29    1
@<TRIPOS>MOLECULE
*****
 34 39 0 0 0
SMALL
GASTEIGER

@<TRIPOS>ATOM
      1 C          63.5530   87.4209   12.8299 C.ar    1  UNL1        0.1095
      2 N          63.5098   88.6402   11.9573 N.ar    1  UNL1       -0.1677
      3 N          63.3283   89.8375   12.8425 N.ar    1  UNL1       -0.2319
      4 C          63.2325   91.2637   12.3879 C.3     1  UNL1        0.1554
      5 C          63.2592   89.3581   14.2622 C.ar    1  UNL1        0.1654
      6 N          63.0878   90.0887   15.5610 N.ar    1  UNL1       -0.2050
      7 C          63.0554   89.3257   16.8520 C.ar    1  UNL1        0.2014
      8 N          63.1942   87.8321   16.8442 N.ar    1  UNL1       -0.2089
      9 C          63.3656   87.1016   15.5454 C.ar    1  UNL1        0.1379
     10 C          63.3981   87.8646   14.2544 C.ar    1  UNL1        0.0865
     11 C          63.0075   85.3699   11.2049 C.ar    1  UNL1        0.0809
     12 C          63.7215   86.0063   12.3605 C.ar    1  UNL1        0.0577
     13 C          64.6334   84.9797   12.9640 C.ar    1  UNL1        0.1231
     14 N          64.4832   83.7088   12.1816 N.ar    1  UNL1       -0.1676
     15 N          63.4782   83.9500   11.0944 N.ar    1  UNL1       -0.2488
     16 C          63.0238   82.9472   10.0755 C.3     1  UNL1        0.1537
     17 C          58.9762   88.0357    7.6493 C.3     1  UNL1        0.0310
     18 C          59.9841   87.3692    8.5382 C.ar    1  UNL1       -0.0218
     19 C          59.8947   87.5315   10.0267 C.ar    1  UNL1       -0.0042
     20 C          60.9025   86.8650   10.9156 C.ar    1  UNL1        0.0012
     21 C          61.9997   86.0363   10.3159 C.ar    1  UNL1        0.0174
     22 C          62.0891   85.8741    8.8274 C.ar    1  UNL1        0.0012
     23 C          61.0812   86.5406    7.9386 C.ar    1  UNL1       -0.0042
     24 N          63.5045   85.6081   15.5376 N.pl3   1  UNL1       -0.2917
     25 C          64.5651   84.8175   16.2448 C.3     1  UNL1        0.0937
     26 C          64.3233   83.3637   15.9655 C.3     1  UNL1        0.0391
     27 C          63.1132   83.2557   15.0857 C.3     1  UNL1        0.0790
     28 C          62.6072   84.6428   14.8212 C.3     1  UNL1        0.1081
     29 N          62.5143   81.9840   14.5622 N.3     1  UNL1       -0.2723
     30 C          61.0276   81.7871   14.5923 C.3     1  UNL1        0.0721
     31 C          60.4288   80.5154   14.0689 C.3     1  UNL1        0.0174
     32 C          61.3166   79.4406   13.5153 C.3     1  UNL1        0.0029
     33 C          62.8032   79.6375   13.4852 C.3     1  UNL1        0.0174
     34 C          63.4022   80.9092   14.0086 C.3     1  UNL1        0.0721
@<TRIPOS>BOND
     1    17    18    1
     2    18    19   ar
     3    19    20   ar
     4    20    21   ar
     5    21    11    1
     6    11    12   ar
     7    12     1    1
     8     1     2   ar
     9     2     3   ar
    10     3     4    1
    11     3     5   ar
    12     5     6   ar
    13     6     7   ar
    14     7     8   ar
    15     8     9   ar
    16     9    24    1
    17    24    25    1
    18    25    26    1
    19    26    27    1
    20    27    29    1
    21    29    30    1
    22    30    31    1
    23    31    32    1
    24    32    33    1
    25    33    34    1
    26    27    28    1
    27     9    10   ar
    28    12    13   ar
    29    13    14   ar
    30    14    15   ar
    31    15    16    1
    32    21    22   ar
    33    22    23   ar
    34    23    18   ar
    35    15    11   ar
    36    10     1   ar
    37    10     5   ar
    38    28    24    1
    39    34    29    1
