@<TRIPOS>MOLECULE
*****
 35 37 0 0 0
SMALL
GASTEIGER

@<TRIPOS>ATOM
      1 N          61.2652   86.4523   11.1597 N.am    1  UNL1       -0.2560
      2 C          60.8038   85.9949    9.8076 C.3     1  UNL1        0.1394
      3 C          60.6870   87.2020    8.9248 C.ar    1  UNL1        0.0662
      4 C          60.3297   87.6653    7.5436 C.ar    1  UNL1        0.0247
      5 C          60.4981   89.1550    7.4965 C.ar    1  UNL1        0.0614
      6 C          60.9595   89.6125    8.8485 C.ar    1  UNL1        0.0922
      7 N          61.0762   88.4054    9.7313 N.ar    1  UNL1       -0.2624
      8 C          61.4336   87.9421   11.1124 C.2     1  UNL1        0.3234
      9 O          61.8808   88.8152   12.2472 O.2     1  UNL1       -0.2490
     10 C          60.2489   90.0333    6.3062 C.1     1  UNL1       -0.0497
     11 C          59.9996   90.9115    5.1160 C.1     1  UNL1       -0.0095
     12 C          59.7505   91.7897    3.9258 C.1     1  UNL1       -0.0138
     13 C          59.5013   92.6680    2.7356 C.1     1  UNL1       -0.0761
     14 C          59.2521   93.5463    1.5455 C.3     1  UNL1        0.0969
     15 C          58.4940   93.3999    0.2593 C.3     1  UNL1        0.0867
     16 N          58.8997   94.7883   -0.1377 N.3     1  UNL1       -0.2688
     17 C          59.6578   94.9347    1.1483 C.3     1  UNL1        0.0867
     18 C          58.6506   95.6667   -1.3279 C.3     1  UNL1        0.1043
     19 C          57.4198   96.5222   -1.3840 C.3     1  UNL1        0.1544
     20 O          56.1260   96.0128   -0.8214 O.3     1  UNL1       -0.3805
     21 H          55.8213   95.2556   -1.3455 H       1  UNL1        0.2105
     22 C          61.5144   85.5741   12.3498 C.3     1  UNL1        0.0977
     23 C          62.8819   85.0062   12.5897 C.3     1  UNL1        0.0524
     24 C          63.2708   82.8428   14.6314 C.3     1  UNL1        0.0331
     25 C          63.0763   83.9245   13.6105 C.3     1  UNL1        0.1820
     26 C          62.9892   84.9440   14.7074 C.2     1  UNL1        0.2640
     27 O          63.8827   86.1486   14.6844 O.2     1  UNL1       -0.2713
     28 N          62.0087   84.7588   15.8273 N.am    1  UNL1       -0.1956
     29 O          61.9216   85.7782   16.9242 O.3     1  UNL1       -0.2951
     30 H          61.4223   83.9681   15.8424 H       1  UNL1        0.1823
     31 H          62.5625   86.4872   16.7583 H       1  UNL1        0.2414
     32 S          63.1634   82.9050   12.5137 S.O2    1  UNL1       -0.0034
     33 C          63.2506   81.8856   11.4169 C.3     1  UNL1        0.1765
     34 O          64.2756   83.6848   11.8773 O.2     1  UNL1       -0.1726
     35 O          62.0513   82.1253   13.1501 O.2     1  UNL1       -0.1726
@<TRIPOS>BOND
     1    25    24    1
     2    25    23    1
     3    23    22    1
     4    22     1    1
     5     1     2    1
     6     2     3    1
     7     3     4   ar
     8     4     5   ar
     9     5    10    1
    10    10    11    3
    11    11    12    1
    12    12    13    3
    13    13    14    1
    14    14    15    1
    15    15    16    1
    16    16    18    1
    17    18    19    1
    18    19    20    1
    19    16    17    1
    20     5     6   ar
    21     6     7   ar
    22     7     8   am
    23     8     9    2
    24    25    26    1
    25    26    27    2
    26    26    28   am
    27    28    29    1
    28    25    32    1
    29    32    33    1
    30    32    34    2
    31    32    35    2
    32     8     1   am
    33     7     3   ar
    34    17    14    1
    35    20    21    1
    36    28    30    1
    37    29    31    1
@<TRIPOS>MOLECULE
*****
 35 37 0 0 0
SMALL
GASTEIGER

@<TRIPOS>ATOM
      1 N          61.4933   86.3748   11.3069 N.am    1  UNL1       -0.2560
      2 C          60.9011   85.9401    9.9991 C.3     1  UNL1        0.1394
      3 C          60.8207   87.1415    9.1045 C.ar    1  UNL1        0.0662
      4 C          60.4050   87.6153    7.7434 C.ar    1  UNL1        0.0247
      5 C          60.6906   89.0853    7.6571 C.ar    1  UNL1        0.0614
      6 C          61.2829   89.5200    8.9649 C.ar    1  UNL1        0.0922
      7 N          61.3633   88.3187    9.8594 N.ar    1  UNL1       -0.2624
      8 C          61.7790   87.8449   11.2206 C.2     1  UNL1        0.3234
      9 O          62.3756   88.6923   12.3050 O.2     1  UNL1       -0.2490
     10 C          60.4298   89.9660    6.4712 C.1     1  UNL1       -0.0497
     11 C          60.1690   90.8468    5.2853 C.1     1  UNL1       -0.0095
     12 C          59.9082   91.7274    4.0994 C.1     1  UNL1       -0.0138
     13 C          59.6474   92.6082    2.9135 C.1     1  UNL1       -0.0761
     14 C          59.3866   93.4888    1.7276 C.3     1  UNL1        0.0969
     15 C          59.7411   94.8978    1.3543 C.3     1  UNL1        0.0867
     16 N          59.0178   94.7343    0.0505 N.3     1  UNL1       -0.2688
     17 C          58.6633   93.3254    0.4238 C.3     1  UNL1        0.0867
     18 C          58.7570   95.6150   -1.1354 C.3     1  UNL1        0.1043
     19 C          57.5158   96.4558   -1.1866 C.3     1  UNL1        0.1544
     20 O          56.1914   95.8617   -0.8085 O.3     1  UNL1       -0.3805
     21 H          55.9495   95.1760   -1.4505 H       1  UNL1        0.2105
     22 C          61.7541   85.4941   12.4927 C.3     1  UNL1        0.0977
     23 C          63.1632   85.2207   12.9285 C.3     1  UNL1        0.0524
     24 C          63.7801   82.7868   14.5702 C.3     1  UNL1        0.0331
     25 C          63.4716   84.0038   13.7494 C.3     1  UNL1        0.1820
     26 C          63.5149   83.1729   12.5013 C.2     1  UNL1        0.2640
     27 O          62.3990   82.2179   12.1970 O.2     1  UNL1       -0.2713
     28 N          64.6742   83.2969   11.5575 N.am    1  UNL1       -0.1956
     29 O          64.7174   82.4660   10.3094 O.3     1  UNL1       -0.2951
     30 H          65.4066   83.9237   11.7572 H       1  UNL1        0.1823
     31 H          63.9259   81.9070   10.2655 H       1  UNL1        0.2414
     32 S          63.4284   84.8346   14.9974 S.O2    1  UNL1       -0.0034
     33 C          63.3852   85.6655   16.2455 C.3     1  UNL1        0.1765
     34 O          64.5232   85.7053   14.4558 O.2     1  UNL1       -0.1726
     35 O          62.3337   83.9640   15.5391 O.2     1  UNL1       -0.1726
@<TRIPOS>BOND
     1    25    24    1
     2    25    23    1
     3    23    22    1
     4    22     1    1
     5     1     2    1
     6     2     3    1
     7     3     4   ar
     8     4     5   ar
     9     5    10    1
    10    10    11    3
    11    11    12    1
    12    12    13    3
    13    13    14    1
    14    14    15    1
    15    15    16    1
    16    16    18    1
    17    18    19    1
    18    19    20    1
    19    16    17    1
    20     5     6   ar
    21     6     7   ar
    22     7     8   am
    23     8     9    2
    24    25    26    1
    25    26    27    2
    26    26    28   am
    27    28    29    1
    28    25    32    1
    29    32    33    1
    30    32    34    2
    31    32    35    2
    32     8     1   am
    33     7     3   ar
    34    17    14    1
    35    20    21    1
    36    28    30    1
    37    29    31    1
@<TRIPOS>MOLECULE
*****
 35 37 0 0 0
SMALL
GASTEIGER

@<TRIPOS>ATOM
      1 N          60.5180   96.0435   -0.5901 N.am    1  UNL1       -0.2560
      2 C          60.1439   96.7611   -1.8531 C.3     1  UNL1        0.1394
      3 C          58.6896   96.5060   -2.1180 C.ar    1  UNL1        0.0662
      4 C          57.5597   96.7918   -3.0622 C.ar    1  UNL1        0.0247
      5 C          56.3367   96.0931   -2.5465 C.ar    1  UNL1        0.0614
      6 C          56.7107   95.3754   -1.2835 C.ar    1  UNL1        0.0922
      7 N          58.1649   95.6306   -1.0186 N.ar    1  UNL1       -0.2624
      8 C          59.2948   95.3448   -0.0744 C.2     1  UNL1        0.3234
      9 O          59.2156   94.5073    1.1675 O.2     1  UNL1       -0.2490
     10 C          54.9781   96.1092   -3.1821 C.1     1  UNL1       -0.0497
     11 C          53.6196   96.1253   -3.8177 C.1     1  UNL1       -0.0095
     12 C          52.2609   96.1414   -4.4533 C.1     1  UNL1       -0.0138
     13 C          50.9023   96.1574   -5.0887 C.1     1  UNL1       -0.0761
     14 C          49.5437   96.1735   -5.7242 C.3     1  UNL1        0.0969
     15 C          48.9256   95.5171   -6.9231 C.3     1  UNL1        0.0867
     16 N          47.6223   96.1962   -6.6229 N.3     1  UNL1       -0.2688
     17 C          48.2403   96.8525   -5.4241 C.3     1  UNL1        0.0867
     18 C          46.2636   96.2123   -7.2584 C.3     1  UNL1        0.1043
     19 C          45.2441   95.1810   -6.8750 C.3     1  UNL1        0.1544
     20 O          45.6659   93.7610   -6.6387 O.3     1  UNL1       -0.3805
     21 H          45.9823   93.3751   -7.4705 H       1  UNL1        0.2105
     22 C          61.8764   96.0274    0.0455 C.3     1  UNL1        0.0977
     23 C          62.8784   94.9844   -0.3524 C.3     1  UNL1        0.0524
     24 C          63.2986   92.5703    1.3783 C.3     1  UNL1        0.0331
     25 C          63.0885   93.7774    0.5129 C.3     1  UNL1        0.1820
     26 C          61.9967   93.0594   -0.2235 C.2     1  UNL1        0.2640
     27 O          61.9516   93.0982   -1.7223 O.2     1  UNL1       -0.2713
     28 N          60.9499   92.3024    0.5390 N.am    1  UNL1       -0.1956
     29 O          59.8580   91.5844   -0.1974 O.3     1  UNL1       -0.2951
     30 H          60.9795   92.2769    1.5227 H       1  UNL1        0.1823
     31 H          59.9753   91.7097   -1.1521 H       1  UNL1        0.2414
     32 S          64.1804   94.4953    1.2493 S.O2    1  UNL1       -0.0034
     33 C          65.2723   95.2133    1.9856 C.3     1  UNL1        0.1765
     34 O          64.8407   94.8294   -0.0555 O.2     1  UNL1       -0.1726
     35 O          63.5202   94.1613    2.5540 O.2     1  UNL1       -0.1726
@<TRIPOS>BOND
     1    25    24    1
     2    25    23    1
     3    23    22    1
     4    22     1    1
     5     1     2    1
     6     2     3    1
     7     3     4   ar
     8     4     5   ar
     9     5    10    1
    10    10    11    3
    11    11    12    1
    12    12    13    3
    13    13    14    1
    14    14    15    1
    15    15    16    1
    16    16    18    1
    17    18    19    1
    18    19    20    1
    19    16    17    1
    20     5     6   ar
    21     6     7   ar
    22     7     8   am
    23     8     9    2
    24    25    26    1
    25    26    27    2
    26    26    28   am
    27    28    29    1
    28    25    32    1
    29    32    33    1
    30    32    34    2
    31    32    35    2
    32     8     1   am
    33     7     3   ar
    34    17    14    1
    35    20    21    1
    36    28    30    1
    37    29    31    1
