@<TRIPOS>MOLECULE
*****
 29 32 0 0 0
SMALL
GASTEIGER

@<TRIPOS>ATOM
      1 C          62.9828   89.7516   12.1195 C.2     1  UNL1        0.2855
      2 O          62.2035   90.4248   11.0289 O.2     1  UNL1       -0.2665
      3 N          62.9705   88.2562   12.2369 N.am    1  UNL1       -0.2735
      4 C          62.1789   87.4340   11.2636 C.3     1  UNL1        0.0941
      5 C          62.1665   85.9387   11.3810 C.3     1  UNL1        0.0259
      6 C          62.9458   85.2655   12.4717 C.3     1  UNL1        0.0257
      7 C          63.7374   86.0878   13.4450 C.3     1  UNL1        0.0259
      8 C          63.7498   87.5831   13.3276 C.3     1  UNL1        0.0941
      9 C          66.1806   93.3506   11.3862 C.ar    1  UNL1        0.0861
     10 C          66.7426   93.8993   12.6640 C.ar    1  UNL1        0.0150
     11 C          66.3031   93.3321   13.9813 C.ar    1  UNL1        0.0400
     12 C          65.3016   92.2163   14.0207 C.ar    1  UNL1        0.1705
     13 N          64.6839   91.4617   15.1604 N.ar    1  UNL1       -0.1283
     14 N          63.7401   90.4465   14.5870 N.ar    1  UNL1       -0.1236
     15 C          63.7745   90.5737   13.0928 C.ar    1  UNL1        0.2244
     16 N          64.7395   91.6675   12.7428 N.ar    1  UNL1       -0.2681
     17 C          65.1790   92.2347   11.4256 C.ar    1  UNL1        0.0933
     18 N          67.0596   94.4849    8.7516 N.1     1  UNL1       -0.1908
     19 C          66.6201   93.9177   10.0689 C.1     1  UNL1        0.1019
     20 C          62.9334   83.7701   12.5890 C.ar    1  UNL1       -0.0185
     21 C          63.0391   82.9203   11.3576 C.ar    1  UNL1       -0.0043
     22 C          63.0268   81.4250   11.4749 C.ar    1  UNL1       -0.0003
     23 C          62.9087   80.7795   12.8238 C.ar    1  UNL1       -0.0001
     24 C          62.8030   81.6294   14.0553 C.ar    1  UNL1        0.0035
     25 C          62.8153   83.1247   13.9380 C.ar    1  UNL1        0.0675
     26 C          62.7096   83.9746   15.1694 C.3     1  UNL1        0.4183
     27 F          62.6038   84.8245   16.4008 F       1  UNL1       -0.1659
     28 F          61.2724   84.2605   14.8486 F       1  UNL1       -0.1659
     29 F          64.1468   83.6887   15.4902 F       1  UNL1       -0.1659
@<TRIPOS>BOND
     1    18    19    3
     2    19     9    1
     3     9    10   ar
     4    10    11   ar
     5    11    12   ar
     6    12    13   ar
     7    13    14   ar
     8    14    15   ar
     9    15     1    1
    10     1     2    2
    11     1     3   am
    12     3     4    1
    13     4     5    1
    14     5     6    1
    15     6    20    1
    16    20    21   ar
    17    21    22   ar
    18    22    23   ar
    19    23    24   ar
    20    24    25   ar
    21    25    26    1
    22    26    27    1
    23    26    28    1
    24    26    29    1
    25     6     7    1
    26     7     8    1
    27    15    16   ar
    28    16    17   ar
    29    17     9   ar
    30    16    12   ar
    31     8     3    1
    32    25    20   ar
@<TRIPOS>MOLECULE
*****
 29 32 0 0 0
SMALL
GASTEIGER

@<TRIPOS>ATOM
      1 C          63.1606   89.2856   12.1510 C.2     1  UNL1        0.2855
      2 O          62.5334   89.9394   10.9555 O.2     1  UNL1       -0.2665
      3 N          63.0453   87.8022   12.3413 N.am    1  UNL1       -0.2735
      4 C          62.3029   86.9725   11.3361 C.3     1  UNL1        0.0941
      5 C          62.1876   85.4891   11.5264 C.3     1  UNL1        0.0259
      6 C          62.8148   84.8353   12.7218 C.3     1  UNL1        0.0257
      7 C          63.5573   85.6650   13.7270 C.3     1  UNL1        0.0259
      8 C          63.6726   87.1484   13.5368 C.3     1  UNL1        0.0941
      9 C          66.0134   93.1899   11.5734 C.ar    1  UNL1        0.0861
     10 C          66.5590   93.7093   12.8705 C.ar    1  UNL1        0.0150
     11 C          66.2050   93.0284   14.1594 C.ar    1  UNL1        0.0400
     12 C          65.3055   91.8281   14.1511 C.ar    1  UNL1        0.1705
     13 N          64.7858   90.9556   15.2550 N.ar    1  UNL1       -0.1283
     14 N          63.9191   89.8970   14.6401 N.ar    1  UNL1       -0.1236
     15 C          63.9031   90.1152   13.1562 C.ar    1  UNL1        0.2244
     16 N          64.7600   91.3087   12.8540 N.ar    1  UNL1       -0.2681
     17 C          65.1139   91.9896   11.5651 C.ar    1  UNL1        0.0933
     18 N          66.7213   94.5518    8.9958 N.1     1  UNL1       -0.1908
     19 C          66.3674   93.8709   10.2846 C.1     1  UNL1        0.1019
     20 C          62.6996   83.3519   12.9121 C.ar    1  UNL1       -0.0185
     21 C          61.9695   82.8028   14.1019 C.ar    1  UNL1       -0.0043
     22 C          61.8543   81.3194   14.2922 C.ar    1  UNL1       -0.0003
     23 C          62.4690   80.3851   13.2926 C.ar    1  UNL1       -0.0001
     24 C          63.1991   80.9342   12.1028 C.ar    1  UNL1        0.0035
     25 C          63.3144   82.4176   11.9125 C.ar    1  UNL1        0.0675
     26 C          64.0444   82.9667   10.7228 C.3     1  UNL1        0.4183
     27 F          64.7745   83.5158    9.5331 F       1  UNL1       -0.1659
     28 F          65.1926   83.3548   11.6066 F       1  UNL1       -0.1659
     29 F          62.8962   82.5786    9.8390 F       1  UNL1       -0.1659
@<TRIPOS>BOND
     1    18    19    3
     2    19     9    1
     3     9    10   ar
     4    10    11   ar
     5    11    12   ar
     6    12    13   ar
     7    13    14   ar
     8    14    15   ar
     9    15     1    1
    10     1     2    2
    11     1     3   am
    12     3     4    1
    13     4     5    1
    14     5     6    1
    15     6    20    1
    16    20    21   ar
    17    21    22   ar
    18    22    23   ar
    19    23    24   ar
    20    24    25   ar
    21    25    26    1
    22    26    27    1
    23    26    28    1
    24    26    29    1
    25     6     7    1
    26     7     8    1
    27    15    16   ar
    28    16    17   ar
    29    17     9   ar
    30    16    12   ar
    31     8     3    1
    32    25    20   ar
@<TRIPOS>MOLECULE
*****
 29 32 0 0 0
SMALL
GASTEIGER

@<TRIPOS>ATOM
      1 C          63.8929   88.4244   14.5852 C.2     1  UNL1        0.2855
      2 O          64.2084   88.8716   15.9818 O.2     1  UNL1       -0.2665
      3 N          63.5914   86.9811   14.3100 N.am    1  UNL1       -0.2735
      4 C          63.6053   85.9849   15.4313 C.3     1  UNL1        0.0941
      5 C          63.3037   84.5415   15.1560 C.3     1  UNL1        0.0259
      6 C          62.9883   84.0943   13.7594 C.3     1  UNL1        0.0257
      7 C          62.9744   85.0906   12.6381 C.3     1  UNL1        0.0259
      8 C          63.2759   86.5339   12.9133 C.3     1  UNL1        0.0941
      9 C          66.4305   92.5310   13.9421 C.ar    1  UNL1        0.0861
     10 C          66.0943   93.2278   12.6570 C.ar    1  UNL1        0.0150
     11 C          65.0692   92.6418   11.7320 C.ar    1  UNL1        0.0400
     12 C          64.3802   91.3590   12.0920 C.ar    1  UNL1        0.1705
     13 N          63.3351   90.5482   11.3846 N.ar    1  UNL1       -0.1283
     14 N          63.0254   89.3502   12.2325 N.ar    1  UNL1       -0.1236
     15 C          63.8790   89.4206   13.4639 C.ar    1  UNL1        0.2244
     16 N          64.7164   90.6622   13.3770 N.ar    1  UNL1       -0.2681
     17 C          65.7415   91.2481   14.3020 C.ar    1  UNL1        0.0933
     18 N          68.4807   93.7029   15.7922 N.1     1  UNL1       -0.1908
     19 C          67.4556   93.1170   14.8671 C.1     1  UNL1        0.1019
     20 C          62.6867   82.6509   13.4842 C.ar    1  UNL1       -0.0185
     21 C          61.7700   81.8894   14.3950 C.ar    1  UNL1       -0.0043
     22 C          61.4685   80.4460   14.1198 C.ar    1  UNL1       -0.0003
     23 C          62.0836   79.7642   12.9337 C.ar    1  UNL1       -0.0001
     24 C          63.0003   80.5259   12.0228 C.ar    1  UNL1        0.0035
     25 C          63.3019   81.9692   12.2980 C.ar    1  UNL1        0.0675
     26 C          64.2186   82.7309   11.3873 C.3     1  UNL1        0.4183
     27 F          65.1353   83.4925   10.4765 F       1  UNL1       -0.1659
     28 F          65.3295   82.5866   12.3849 F       1  UNL1       -0.1659
     29 F          63.1077   82.8751   10.3897 F       1  UNL1       -0.1659
@<TRIPOS>BOND
     1    18    19    3
     2    19     9    1
     3     9    10   ar
     4    10    11   ar
     5    11    12   ar
     6    12    13   ar
     7    13    14   ar
     8    14    15   ar
     9    15     1    1
    10     1     2    2
    11     1     3   am
    12     3     4    1
    13     4     5    1
    14     5     6    1
    15     6    20    1
    16    20    21   ar
    17    21    22   ar
    18    22    23   ar
    19    23    24   ar
    20    24    25   ar
    21    25    26    1
    22    26    27    1
    23    26    28    1
    24    26    29    1
    25     6     7    1
    26     7     8    1
    27    15    16   ar
    28    16    17   ar
    29    17     9   ar
    30    16    12   ar
    31     8     3    1
    32    25    20   ar
@<TRIPOS>MOLECULE
*****
 29 32 0 0 0
SMALL
GASTEIGER

@<TRIPOS>ATOM
      1 C          63.9347   83.2861   11.2856 C.2     1  UNL1        0.2855
      2 O          64.8900   82.4466   10.4902 O.2     1  UNL1       -0.2665
      3 N          63.1113   84.3370   10.6018 N.am    1  UNL1       -0.2735
      4 C          63.2431   84.5484    9.1226 C.3     1  UNL1        0.0941
      5 C          62.4197   85.5993    8.4388 C.3     1  UNL1        0.0259
      6 C          61.4644   86.4389    9.2342 C.3     1  UNL1        0.0257
      7 C          61.3326   86.2274   10.7134 C.3     1  UNL1        0.0259
      8 C          62.1560   85.1765   11.3972 C.3     1  UNL1        0.0941
      9 C          64.0774   86.4553   14.9805 C.ar    1  UNL1        0.0861
     10 C          63.8987   85.7991   16.3174 C.ar    1  UNL1        0.0150
     11 C          63.7030   84.3145   16.4041 C.ar    1  UNL1        0.0400
     12 C          63.6858   83.4860   15.1539 C.ar    1  UNL1        0.1705
     13 N          63.5138   82.0131   14.9280 N.ar    1  UNL1       -0.1283
     14 N          63.5860   81.7589   13.4515 N.ar    1  UNL1       -0.1236
     15 C          63.8028   83.0747   12.7647 C.ar    1  UNL1        0.2244
     16 N          63.8645   84.1421   13.8169 N.ar    1  UNL1       -0.2681
     17 C          64.0602   85.6268   13.7302 C.ar    1  UNL1        0.0933
     18 N          64.4689   89.4245   14.8071 N.1     1  UNL1       -0.1908
     19 C          64.2731   87.9399   14.8938 C.1     1  UNL1        0.1019
     20 C          60.6410   87.4898    8.5504 C.ar    1  UNL1       -0.0185
     21 C          59.8009   87.1284    7.3614 C.ar    1  UNL1       -0.0043
     22 C          58.9775   88.1793    6.6776 C.ar    1  UNL1       -0.0003
     23 C          58.9942   89.5916    7.1828 C.ar    1  UNL1       -0.0001
     24 C          59.8343   89.9530    8.3719 C.ar    1  UNL1        0.0035
     25 C          60.6577   88.9021    9.0557 C.ar    1  UNL1        0.0675
     26 C          61.4978   89.2633   10.2446 C.3     1  UNL1        0.4183
     27 F          62.3378   89.6246   11.4337 F       1  UNL1       -0.1659
     28 F          60.2585   89.3992   11.0789 F       1  UNL1       -0.1659
     29 F          62.7370   89.1275    9.4104 F       1  UNL1       -0.1659
@<TRIPOS>BOND
     1    18    19    3
     2    19     9    1
     3     9    10   ar
     4    10    11   ar
     5    11    12   ar
     6    12    13   ar
     7    13    14   ar
     8    14    15   ar
     9    15     1    1
    10     1     2    2
    11     1     3   am
    12     3     4    1
    13     4     5    1
    14     5     6    1
    15     6    20    1
    16    20    21   ar
    17    21    22   ar
    18    22    23   ar
    19    23    24   ar
    20    24    25   ar
    21    25    26    1
    22    26    27    1
    23    26    28    1
    24    26    29    1
    25     6     7    1
    26     7     8    1
    27    15    16   ar
    28    16    17   ar
    29    17     9   ar
    30    16    12   ar
    31     8     3    1
    32    25    20   ar
@<TRIPOS>MOLECULE
*****
 29 32 0 0 0
SMALL
GASTEIGER

@<TRIPOS>ATOM
      1 C          62.2881   89.1396   10.6167 C.2     1  UNL1        0.2855
      2 O          61.3312   89.4733    9.5109 O.2     1  UNL1       -0.2665
      3 N          62.3647   87.7377   11.1447 N.am    1  UNL1       -0.2735
      4 C          61.4843   86.6695   10.5670 C.3     1  UNL1        0.0941
      5 C          61.5609   85.2676   11.0951 C.3     1  UNL1        0.0259
      6 C          62.5179   84.9339   12.2009 C.3     1  UNL1        0.0257
      7 C          63.3983   86.0022   12.7787 C.3     1  UNL1        0.0259
      8 C          63.3217   87.4041   12.2506 C.3     1  UNL1        0.0941
      9 C          63.7378   89.9393   15.1966 C.ar    1  UNL1        0.0861
     10 C          64.6279   91.1398   15.3242 C.ar    1  UNL1        0.0150
     11 C          64.9780   91.9465   14.1090 C.ar    1  UNL1        0.0400
     12 C          64.4380   91.5527   12.7662 C.ar    1  UNL1        0.1705
     13 N          64.6088   92.1503   11.4011 N.ar    1  UNL1       -0.1283
     14 N          63.8242   91.3191   10.4297 N.ar    1  UNL1       -0.1236
     15 C          63.1686   90.2077   11.1945 C.ar    1  UNL1        0.2244
     16 N          63.5479   90.3521   12.6386 N.ar    1  UNL1       -0.2681
     17 C          63.1978   89.5454   13.8537 C.ar    1  UNL1        0.0933
     18 N          63.0376   88.3259   17.6269 N.1     1  UNL1       -0.1908
     19 C          63.3877   89.1326   16.4117 C.1     1  UNL1        0.1019
     20 C          62.5944   83.5320   12.7290 C.ar    1  UNL1       -0.0185
     21 C          61.9114   83.1772   14.0164 C.ar    1  UNL1       -0.0043
     22 C          61.9879   81.7753   14.5445 C.ar    1  UNL1       -0.0003
     23 C          62.7475   80.7282   13.7851 C.ar    1  UNL1       -0.0001
     24 C          63.4306   81.0831   12.4976 C.ar    1  UNL1        0.0035
     25 C          63.3540   82.4850   11.9695 C.ar    1  UNL1        0.0675
     26 C          64.0370   82.8399   10.6821 C.3     1  UNL1        0.4183
     27 F          64.7200   83.1947    9.3946 F       1  UNL1       -0.1659
     28 F          62.9781   82.1024    9.9171 F       1  UNL1       -0.1659
     29 F          65.0959   83.5773   11.4470 F       1  UNL1       -0.1659
@<TRIPOS>BOND
     1    18    19    3
     2    19     9    1
     3     9    10   ar
     4    10    11   ar
     5    11    12   ar
     6    12    13   ar
     7    13    14   ar
     8    14    15   ar
     9    15     1    1
    10     1     2    2
    11     1     3   am
    12     3     4    1
    13     4     5    1
    14     5     6    1
    15     6    20    1
    16    20    21   ar
    17    21    22   ar
    18    22    23   ar
    19    23    24   ar
    20    24    25   ar
    21    25    26    1
    22    26    27    1
    23    26    28    1
    24    26    29    1
    25     6     7    1
    26     7     8    1
    27    15    16   ar
    28    16    17   ar
    29    17     9   ar
    30    16    12   ar
    31     8     3    1
    32    25    20   ar
@<TRIPOS>MOLECULE
*****
 29 32 0 0 0
SMALL
GASTEIGER

@<TRIPOS>ATOM
      1 C          62.2265   89.2286   10.6238 C.2     1  UNL1        0.2855
      2 O          61.2198   89.5950    9.5739 O.2     1  UNL1       -0.2665
      3 N          62.3375   87.8083   11.0932 N.am    1  UNL1       -0.2735
      4 C          61.4418   86.7544   10.5128 C.3     1  UNL1        0.0941
      5 C          61.5528   85.3340   10.9822 C.3     1  UNL1        0.0259
      6 C          62.5595   84.9676   12.0321 C.3     1  UNL1        0.0257
      7 C          63.4553   86.0216   12.6125 C.3     1  UNL1        0.0259
      8 C          63.3443   87.4419   12.1431 C.3     1  UNL1        0.0941
      9 C          63.7364   89.9596   15.1957 C.ar    1  UNL1        0.0861
     10 C          64.6377   91.1514   15.3276 C.ar    1  UNL1        0.0150
     11 C          64.9799   91.9704   14.1184 C.ar    1  UNL1        0.0400
     12 C          64.4210   91.5976   12.7773 C.ar    1  UNL1        0.1705
     13 N          64.5805   92.2108   11.4177 N.ar    1  UNL1       -0.1283
     14 N          63.7779   91.3980   10.4455 N.ar    1  UNL1       -0.1236
     15 C          63.1223   90.2825   11.2042 C.ar    1  UNL1        0.2244
     16 N          63.5198   90.4058   12.6454 N.ar    1  UNL1       -0.2681
     17 C          63.1775   89.5868   13.8546 C.ar    1  UNL1        0.0933
     18 N          63.0518   88.3217   17.6140 N.1     1  UNL1       -0.1908
     19 C          63.3941   89.1407   16.4048 C.1     1  UNL1        0.1019
     20 C          62.6705   83.5473   12.5015 C.ar    1  UNL1       -0.0185
     21 C          62.6314   82.4239   11.5083 C.ar    1  UNL1       -0.0043
     22 C          62.7424   81.0036   11.9777 C.ar    1  UNL1       -0.0003
     23 C          62.8925   80.7066   13.4403 C.ar    1  UNL1       -0.0001
     24 C          62.9315   81.8301   14.4336 C.ar    1  UNL1        0.0035
     25 C          62.8205   83.2504   13.9642 C.ar    1  UNL1        0.0675
     26 C          62.8596   84.3738   14.9573 C.3     1  UNL1        0.4183
     27 F          62.8985   85.4972   15.9505 F       1  UNL1       -0.1659
     28 F          61.3628   84.4638   14.9142 F       1  UNL1       -0.1659
     29 F          64.3562   84.2838   15.0005 F       1  UNL1       -0.1659
@<TRIPOS>BOND
     1    18    19    3
     2    19     9    1
     3     9    10   ar
     4    10    11   ar
     5    11    12   ar
     6    12    13   ar
     7    13    14   ar
     8    14    15   ar
     9    15     1    1
    10     1     2    2
    11     1     3   am
    12     3     4    1
    13     4     5    1
    14     5     6    1
    15     6    20    1
    16    20    21   ar
    17    21    22   ar
    18    22    23   ar
    19    23    24   ar
    20    24    25   ar
    21    25    26    1
    22    26    27    1
    23    26    28    1
    24    26    29    1
    25     6     7    1
    26     7     8    1
    27    15    16   ar
    28    16    17   ar
    29    17     9   ar
    30    16    12   ar
    31     8     3    1
    32    25    20   ar
@<TRIPOS>MOLECULE
*****
 29 32 0 0 0
SMALL
GASTEIGER

@<TRIPOS>ATOM
      1 C          60.0617   88.3274   10.8307 C.2     1  UNL1        0.2855
      2 O          58.8467   88.1333   11.6886 O.2     1  UNL1       -0.2665
      3 N          61.2129   89.1463   11.3351 N.am    1  UNL1       -0.2735
      4 C          61.1490   89.7711   12.6972 C.3     1  UNL1        0.0941
      5 C          62.3002   90.5899   13.2016 C.3     1  UNL1        0.0259
      6 C          63.5152   90.7840   12.3437 C.3     1  UNL1        0.0257
      7 C          63.5791   90.1592   10.9814 C.3     1  UNL1        0.0259
      8 C          62.4279   89.3404   10.4771 C.3     1  UNL1        0.0941
      9 C          62.8027   84.6813    9.1250 C.ar    1  UNL1        0.0861
     10 C          62.5358   84.3790    7.6803 C.ar    1  UNL1        0.0150
     11 C          61.5116   85.1729    6.9247 C.ar    1  UNL1        0.0400
     12 C          60.7544   86.2691    7.6138 C.ar    1  UNL1        0.1705
     13 N          59.6938   87.2135    7.1309 N.ar    1  UNL1       -0.1283
     14 N          59.3053   88.0995    8.2772 N.ar    1  UNL1       -0.1236
     15 C          60.1257   87.7027    9.4685 C.ar    1  UNL1        0.2244
     16 N          61.0213   86.5714    9.0585 N.ar    1  UNL1       -0.2681
     17 C          62.0455   85.7775    9.8141 C.ar    1  UNL1        0.0933
     18 N          64.8509   83.0936   10.6362 N.1     1  UNL1       -0.1908
     19 C          63.8268   83.8875    9.8806 C.1     1  UNL1        0.1019
     20 C          64.6664   91.6029   12.8480 C.ar    1  UNL1       -0.0185
     21 C          65.3277   92.6025   11.9461 C.ar    1  UNL1       -0.0043
     22 C          66.4788   93.4213   12.4504 C.ar    1  UNL1       -0.0003
     23 C          66.9686   93.2406   13.8567 C.ar    1  UNL1       -0.0001
     24 C          66.3073   92.2409   14.7586 C.ar    1  UNL1        0.0035
     25 C          65.1561   91.4221   14.2543 C.ar    1  UNL1        0.0675
     26 C          64.4948   90.4224   15.1561 C.3     1  UNL1        0.4183
     27 F          63.8333   89.4229   16.0579 F       1  UNL1       -0.1659
     28 F          63.8925   91.5409   15.9540 F       1  UNL1       -0.1659
     29 F          65.0969   89.3041   14.3582 F       1  UNL1       -0.1659
@<TRIPOS>BOND
     1    18    19    3
     2    19     9    1
     3     9    10   ar
     4    10    11   ar
     5    11    12   ar
     6    12    13   ar
     7    13    14   ar
     8    14    15   ar
     9    15     1    1
    10     1     2    2
    11     1     3   am
    12     3     4    1
    13     4     5    1
    14     5     6    1
    15     6    20    1
    16    20    21   ar
    17    21    22   ar
    18    22    23   ar
    19    23    24   ar
    20    24    25   ar
    21    25    26    1
    22    26    27    1
    23    26    28    1
    24    26    29    1
    25     6     7    1
    26     7     8    1
    27    15    16   ar
    28    16    17   ar
    29    17     9   ar
    30    16    12   ar
    31     8     3    1
    32    25    20   ar
@<TRIPOS>MOLECULE
*****
 29 32 0 0 0
SMALL
GASTEIGER

@<TRIPOS>ATOM
      1 C          61.3288   87.5704   10.3702 C.2     1  UNL1        0.2855
      2 O          59.9491   87.9259    9.9014 O.2     1  UNL1       -0.2665
      3 N          62.0065   88.4100   11.4122 N.am    1  UNL1       -0.2735
      4 C          61.3044   89.6051   11.9855 C.3     1  UNL1        0.0941
      5 C          61.9820   90.4447   13.0275 C.3     1  UNL1        0.0259
      6 C          63.3618   90.0892   13.4963 C.3     1  UNL1        0.0257
      7 C          64.0639   88.8940   12.9230 C.3     1  UNL1        0.0259
      8 C          63.3863   88.0544   11.8810 C.3     1  UNL1        0.0941
      9 C          63.2458   83.6571   12.5445 C.ar    1  UNL1        0.0861
     10 C          63.8600   82.6935   11.5727 C.ar    1  UNL1        0.0150
     11 C          63.8362   82.9929   10.1031 C.ar    1  UNL1        0.0400
     12 C          63.1983   84.2559    9.6053 C.ar    1  UNL1        0.1705
     13 N          63.0248   84.8161    8.2247 N.ar    1  UNL1       -0.1283
     14 N          62.3033   86.1259    8.3432 N.ar    1  UNL1       -0.1236
     15 C          62.0310   86.3752    9.7970 C.ar    1  UNL1        0.2244
     16 N          62.5842   85.2195   10.5770 N.ar    1  UNL1       -0.2681
     17 C          62.6079   84.9200   12.0466 C.ar    1  UNL1        0.0933
     18 N          63.2933   83.0582   15.4837 N.1     1  UNL1       -0.1908
     19 C          63.2695   83.3576   14.0141 C.1     1  UNL1        0.1019
     20 C          64.0395   90.9288   14.5384 C.ar    1  UNL1       -0.0185
     21 C          63.5805   90.8684   15.9651 C.ar    1  UNL1       -0.0043
     22 C          64.2581   91.7080   17.0072 C.ar    1  UNL1       -0.0003
     23 C          65.3947   92.6081   16.6224 C.ar    1  UNL1       -0.0001
     24 C          65.8537   92.6685   15.1956 C.ar    1  UNL1        0.0035
     25 C          65.1761   91.8289   14.1535 C.ar    1  UNL1        0.0675
     26 C          65.6350   91.8893   12.7268 C.3     1  UNL1        0.4183
     27 F          66.0938   91.9497   11.3000 F       1  UNL1       -0.1659
     28 F          64.3269   92.5087   12.3324 F       1  UNL1       -0.1659
     29 F          66.9430   91.2700   13.1211 F       1  UNL1       -0.1659
@<TRIPOS>BOND
     1    18    19    3
     2    19     9    1
     3     9    10   ar
     4    10    11   ar
     5    11    12   ar
     6    12    13   ar
     7    13    14   ar
     8    14    15   ar
     9    15     1    1
    10     1     2    2
    11     1     3   am
    12     3     4    1
    13     4     5    1
    14     5     6    1
    15     6    20    1
    16    20    21   ar
    17    21    22   ar
    18    22    23   ar
    19    23    24   ar
    20    24    25   ar
    21    25    26    1
    22    26    27    1
    23    26    28    1
    24    26    29    1
    25     6     7    1
    26     7     8    1
    27    15    16   ar
    28    16    17   ar
    29    17     9   ar
    30    16    12   ar
    31     8     3    1
    32    25    20   ar
@<TRIPOS>MOLECULE
*****
 29 32 0 0 0
SMALL
GASTEIGER

@<TRIPOS>ATOM
      1 C          63.9886   88.6195   13.6200 C.2     1  UNL1        0.2855
      2 O          64.8410   89.1454   14.7366 O.2     1  UNL1       -0.2665
      3 N          63.6855   87.1529   13.5346 N.am    1  UNL1       -0.2735
      4 C          64.2349   86.2122   14.5657 C.3     1  UNL1        0.0941
      5 C          63.9318   84.7456   14.4803 C.3     1  UNL1        0.0259
      6 C          63.0794   84.2197   13.3637 C.3     1  UNL1        0.0257
      7 C          62.5300   85.1605   12.3325 C.3     1  UNL1        0.0259
      8 C          62.8331   86.6270   12.4179 C.3     1  UNL1        0.0941
      9 C          59.3986   89.5641   12.2949 C.ar    1  UNL1        0.0861
     10 C          59.3068   90.5911   11.2055 C.ar    1  UNL1        0.0150
     11 C          60.5559   91.2057   10.6470 C.ar    1  UNL1        0.0400
     12 C          61.8968   90.7934   11.1779 C.ar    1  UNL1        0.1705
     13 N          63.2906   91.2218   10.8261 N.ar    1  UNL1       -0.1283
     14 N          64.2438   90.4596   11.6981 N.ar    1  UNL1       -0.1236
     15 C          63.4392   89.5601   12.5888 C.ar    1  UNL1        0.2244
     16 N          61.9886   89.7664   12.2673 N.ar    1  UNL1       -0.2681
     17 C          60.7395   89.1518   12.8258 C.ar    1  UNL1        0.0933
     18 N          56.9004   88.3348   13.4119 N.1     1  UNL1       -0.1908
     19 C          58.1495   88.9494   12.8534 C.1     1  UNL1        0.1019
     20 C          62.7763   82.7531   13.2783 C.ar    1  UNL1       -0.0185
     21 C          61.9391   82.0974   14.3362 C.ar    1  UNL1       -0.0043
     22 C          61.6360   80.6309   14.2507 C.ar    1  UNL1       -0.0003
     23 C          62.1702   79.8200   13.1075 C.ar    1  UNL1       -0.0001
     24 C          63.0075   80.4757   12.0496 C.ar    1  UNL1        0.0035
     25 C          63.3106   81.9422   12.1350 C.ar    1  UNL1        0.0675
     26 C          64.1478   82.5980   11.0772 C.3     1  UNL1        0.4183
     27 F          64.9852   83.2537   10.0195 F       1  UNL1       -0.1659
     28 F          65.2706   82.7501   12.0603 F       1  UNL1       -0.1659
     29 F          63.0252   82.4459   10.0941 F       1  UNL1       -0.1659
@<TRIPOS>BOND
     1    18    19    3
     2    19     9    1
     3     9    10   ar
     4    10    11   ar
     5    11    12   ar
     6    12    13   ar
     7    13    14   ar
     8    14    15   ar
     9    15     1    1
    10     1     2    2
    11     1     3   am
    12     3     4    1
    13     4     5    1
    14     5     6    1
    15     6    20    1
    16    20    21   ar
    17    21    22   ar
    18    22    23   ar
    19    23    24   ar
    20    24    25   ar
    21    25    26    1
    22    26    27    1
    23    26    28    1
    24    26    29    1
    25     6     7    1
    26     7     8    1
    27    15    16   ar
    28    16    17   ar
    29    17     9   ar
    30    16    12   ar
    31     8     3    1
    32    25    20   ar
