@<TRIPOS>MOLECULE
*****
 33 36 0 0 0
SMALL
GASTEIGER

@<TRIPOS>ATOM
      1 C          65.6257   91.7176   12.9051 C.ar    1  UNL1        0.0949
      2 C          65.6962   90.9378   14.1844 C.ar    1  UNL1        0.1454
      3 F          66.9366   90.9885   15.0263 F       1  UNL1       -0.2040
      4 C          64.5263   90.1072   14.6218 C.ar    1  UNL1        0.0312
      5 C          63.2859   90.0564   13.7799 C.ar    1  UNL1        0.0204
      6 C          63.2154   90.8363   12.5006 C.ar    1  UNL1        0.0924
      7 C          64.3853   91.6669   12.0632 C.ar    1  UNL1        0.1598
      8 F          64.3148   92.4468   10.7838 F       1  UNL1       -0.2026
      9 C          66.7956   92.5483   12.4676 C.2     1  UNL1        0.2007
     10 O          68.1694   91.9475   12.4293 O.2     1  UNL1       -0.2866
     11 C          67.1806   93.9145    9.3925 C.2     1  UNL1        0.1360
     12 C          67.2785   94.7502    8.1508 C.2     1  UNL1        0.0837
     13 C          66.9693   96.2168    8.2075 C.2     1  UNL1        0.2385
     14 N          66.5620   96.8478    9.5060 N.2     1  UNL1       -0.0338
     15 C          66.4641   96.0121   10.7477 C.2     1  UNL1        0.3626
     16 N          66.0912   96.3529   12.1601 N.2     1  UNL1       -0.0341
     17 C          66.1700   95.0968   12.9763 C.2     1  UNL1        0.2355
     18 C          66.5916   93.9798   12.0683 C.2     1  UNL1        0.0823
     19 C          66.7734   94.5454   10.6910 C.3     1  UNL1        0.1973
     20 C          68.8550   91.9846    8.9213 C.3     1  UNL1        0.2520
     21 O          67.4899   92.4478    9.3358 O.2     1  UNL1       -0.4746
     22 N          61.9750   90.7855   11.6587 N.pl3   1  UNL1       -0.2128
     23 H          61.3340   91.5325   11.6809 H       1  UNL1        0.1738
     24 S          61.7111   89.5967   10.7829 S.O2    1  UNL1        0.0737
     25 O          62.5858   90.1875    9.7172 O.2     1  UNL1       -0.1499
     26 O          60.8363   89.0058   11.8486 O.2     1  UNL1       -0.1499
     27 C          61.4471   88.4078    9.9073 C.ar    1  UNL1        0.1274
     28 C          60.1301   88.2733    9.2021 C.ar    1  UNL1        0.0203
     29 C          59.8660   87.0844    8.3264 C.ar    1  UNL1        0.0037
     30 C          60.9191   86.0300    8.1558 C.ar    1  UNL1        0.0297
     31 C          62.2362   86.1644    8.8610 C.ar    1  UNL1        0.1415
     32 F          63.2893   85.1099    8.6904 F       1  UNL1       -0.2041
     33 C          62.5002   87.3533    9.7367 C.ar    1  UNL1        0.0498
@<TRIPOS>BOND
     1    20    21    1
     2    21    11    1
     3    11    12    2
     4    12    13    1
     5    13    14    2
     6    14    15    1
     7    15    16    2
     8    16    17    1
     9    17    18    2
    10    18     9    1
    11     9    10    2
    12     9     1    1
    13     1     2   ar
    14     2     3    1
    15     2     4   ar
    16     4     5   ar
    17     5     6   ar
    18     6    22    1
    19    22    24    1
    20    24    25    2
    21    24    26    2
    22    24    27    1
    23    27    28   ar
    24    28    29   ar
    25    29    30   ar
    26    30    31   ar
    27    31    32    1
    28    31    33   ar
    29     6     7   ar
    30     7     8    1
    31    18    19    1
    32    19    11    1
    33    19    15    1
    34     7     1   ar
    35    33    27   ar
    36    22    23    1
@<TRIPOS>MOLECULE
*****
 33 36 0 0 0
SMALL
GASTEIGER

@<TRIPOS>ATOM
      1 C          61.5254   88.7199   10.7261 C.ar    1  UNL1        0.0949
      2 C          60.4628   88.9324    9.6889 C.ar    1  UNL1        0.1454
      3 F          59.6370   90.1845    9.7069 F       1  UNL1       -0.2040
      4 C          60.2261   87.8929    8.6338 C.ar    1  UNL1        0.0312
      5 C          61.0519   86.6408    8.6159 C.ar    1  UNL1        0.0204
      6 C          62.1145   86.4282    9.6531 C.ar    1  UNL1        0.0924
      7 C          62.3512   87.4678   10.7081 C.ar    1  UNL1        0.1598
      8 F          63.4138   87.2553   11.7454 F       1  UNL1       -0.2026
      9 C          61.7622   89.7595   11.7813 C.2     1  UNL1        0.2007
     10 O          60.8315   89.8645   12.9528 O.2     1  UNL1       -0.2866
     11 C          63.9084   90.7049   14.2247 C.2     1  UNL1        0.1360
     12 C          64.9764   91.2705   15.1131 C.2     1  UNL1        0.0837
     13 C          65.9943   92.2188   14.5521 C.2     1  UNL1        0.2385
     14 N          65.9442   92.6014   13.1026 N.2     1  UNL1       -0.0338
     15 C          64.8762   92.0357   12.2141 C.2     1  UNL1        0.3626
     16 N          64.5767   92.2282   10.7570 N.2     1  UNL1       -0.0341
     17 C          63.3738   91.3990   10.4174 C.2     1  UNL1        0.2355
     18 C          62.9298   90.6940   11.6648 C.2     1  UNL1        0.0823
     19 C          63.8583   91.0875   12.7752 C.3     1  UNL1        0.1973
     20 C          62.9765   89.3267   16.2202 C.3     1  UNL1        0.2520
     21 O          62.8905   89.7567   14.7857 O.2     1  UNL1       -0.4746
     22 N          62.9403   85.1761    9.6351 N.pl3   1  UNL1       -0.2128
     23 H          63.5322   84.9878    8.8714 H       1  UNL1        0.1738
     24 S          62.8642   84.2110   10.7809 S.O2    1  UNL1        0.0737
     25 O          61.6413   84.9138   11.2916 O.2     1  UNL1       -0.1499
     26 O          64.0870   83.5083   10.2702 O.2     1  UNL1       -0.1499
     27 C          62.7881   83.2459   11.9266 C.ar    1  UNL1        0.1274
     28 C          62.8020   81.7689   11.6652 C.ar    1  UNL1        0.0203
     29 C          62.7260   80.8037   12.8109 C.ar    1  UNL1        0.0037
     30 C          62.6361   81.3155   14.2180 C.ar    1  UNL1        0.0297
     31 C          62.6221   82.7925   14.4794 C.ar    1  UNL1        0.1415
     32 F          62.5322   83.3043   15.8865 F       1  UNL1       -0.2041
     33 C          62.6982   83.7577   13.3337 C.ar    1  UNL1        0.0498
@<TRIPOS>BOND
     1    20    21    1
     2    21    11    1
     3    11    12    2
     4    12    13    1
     5    13    14    2
     6    14    15    1
     7    15    16    2
     8    16    17    1
     9    17    18    2
    10    18     9    1
    11     9    10    2
    12     9     1    1
    13     1     2   ar
    14     2     3    1
    15     2     4   ar
    16     4     5   ar
    17     5     6   ar
    18     6    22    1
    19    22    24    1
    20    24    25    2
    21    24    26    2
    22    24    27    1
    23    27    28   ar
    24    28    29   ar
    25    29    30   ar
    26    30    31   ar
    27    31    32    1
    28    31    33   ar
    29     6     7   ar
    30     7     8    1
    31    18    19    1
    32    19    11    1
    33    19    15    1
    34     7     1   ar
    35    33    27   ar
    36    22    23    1
@<TRIPOS>MOLECULE
*****
 33 36 0 0 0
SMALL
GASTEIGER

@<TRIPOS>ATOM
      1 C          63.8208   88.6139   15.0308 C.ar    1  UNL1        0.0949
      2 C          63.1799   89.1992   16.2543 C.ar    1  UNL1        0.1454
      3 F          62.8306   90.6574   16.2932 F       1  UNL1       -0.2040
      4 C          62.8884   88.3262   17.4387 C.ar    1  UNL1        0.0312
      5 C          63.2377   86.8679   17.3997 C.ar    1  UNL1        0.0204
      6 C          63.8786   86.2826   16.1763 C.ar    1  UNL1        0.0924
      7 C          64.1701   87.1556   14.9919 C.ar    1  UNL1        0.1598
      8 F          64.8110   86.5704   13.7684 F       1  UNL1       -0.2026
      9 C          64.1123   89.4869   13.8463 C.2     1  UNL1        0.2007
     10 O          63.5123   89.1631   12.5103 O.2     1  UNL1       -0.2866
     11 C          64.7484   91.8977   11.5543 C.2     1  UNL1        0.1360
     12 C          65.1885   93.0714   10.7305 C.2     1  UNL1        0.0837
     13 C          66.1391   94.0782   11.3072 C.2     1  UNL1        0.2385
     14 N          66.6496   93.9114   12.7077 N.2     1  UNL1       -0.0338
     15 C          66.2095   92.7377   13.5315 C.2     1  UNL1        0.3626
     16 N          66.5419   92.3127   14.9311 N.2     1  UNL1       -0.0341
     17 C          65.7968   91.0432   15.2194 C.2     1  UNL1        0.2355
     18 C          65.0038   90.6836   13.9980 C.2     1  UNL1        0.0823
     19 C          65.2589   91.7309   12.9548 C.3     1  UNL1        0.1973
     20 C          62.8052   91.3087    9.9336 C.3     1  UNL1        0.2520
     21 O          63.7978   90.8908   10.9775 O.2     1  UNL1       -0.4746
     22 N          64.2279   84.8244   16.1373 N.pl3   1  UNL1       -0.2128
     23 H          64.6644   84.4019   16.9121 H       1  UNL1        0.1738
     24 S          63.9122   84.0099   14.9180 S.O2    1  UNL1        0.0737
     25 O          62.4565   84.0331   15.2794 O.2     1  UNL1       -0.1499
     26 O          65.3678   83.9867   14.5566 O.2     1  UNL1       -0.1499
     27 C          63.5965   83.1954   13.6986 C.ar    1  UNL1        0.1274
     28 C          62.6378   82.0455   13.7922 C.ar    1  UNL1        0.0203
     29 C          62.3221   81.2309   12.5729 C.ar    1  UNL1        0.0037
     30 C          62.9651   81.5662   11.2598 C.ar    1  UNL1        0.0297
     31 C          63.9238   82.7161   11.1662 C.ar    1  UNL1        0.1415
     32 F          64.5668   83.0514    9.8531 F       1  UNL1       -0.2041
     33 C          64.2395   83.5307   12.3855 C.ar    1  UNL1        0.0498
@<TRIPOS>BOND
     1    20    21    1
     2    21    11    1
     3    11    12    2
     4    12    13    1
     5    13    14    2
     6    14    15    1
     7    15    16    2
     8    16    17    1
     9    17    18    2
    10    18     9    1
    11     9    10    2
    12     9     1    1
    13     1     2   ar
    14     2     3    1
    15     2     4   ar
    16     4     5   ar
    17     5     6   ar
    18     6    22    1
    19    22    24    1
    20    24    25    2
    21    24    26    2
    22    24    27    1
    23    27    28   ar
    24    28    29   ar
    25    29    30   ar
    26    30    31   ar
    27    31    32    1
    28    31    33   ar
    29     6     7   ar
    30     7     8    1
    31    18    19    1
    32    19    11    1
    33    19    15    1
    34     7     1   ar
    35    33    27   ar
    36    22    23    1
@<TRIPOS>MOLECULE
*****
 33 36 0 0 0
SMALL
GASTEIGER

@<TRIPOS>ATOM
      1 C          63.6420   88.6451   15.5074 C.ar    1  UNL1        0.0949
      2 C          63.3164   88.1511   16.8858 C.ar    1  UNL1        0.1454
      3 F          62.9494   89.1262   17.9648 F       1  UNL1       -0.2040
      4 C          63.3577   86.6818   17.1850 C.ar    1  UNL1        0.0312
      5 C          63.7247   85.7066   16.1060 C.ar    1  UNL1        0.0204
      6 C          64.0503   86.2007   14.7276 C.ar    1  UNL1        0.0924
      7 C          64.0090   87.6699   14.4284 C.ar    1  UNL1        0.1598
      8 F          64.3346   88.1641   13.0500 F       1  UNL1       -0.2026
      9 C          63.6007   90.1144   15.2081 C.2     1  UNL1        0.2007
     10 O          63.5584   91.1077   16.3313 O.2     1  UNL1       -0.2866
     11 C          66.0228   91.8626   13.6121 C.2     1  UNL1        0.1360
     12 C          66.9299   92.6250   12.6923 C.2     1  UNL1        0.0837
     13 C          66.5122   92.8889   11.2760 C.2     1  UNL1        0.2385
     14 N          65.1874   92.3905   10.7795 N.2     1  UNL1       -0.0338
     15 C          64.2804   91.6281   11.6993 C.2     1  UNL1        0.3626
     16 N          62.9258   91.0174   11.4940 N.2     1  UNL1       -0.0341
     17 C          62.5063   90.3760   12.7835 C.2     1  UNL1        0.2355
     18 C          63.6016   90.5904   13.7856 C.2     1  UNL1        0.0823
     19 C          64.6980   91.3642   13.1155 C.3     1  UNL1        0.1973
     20 C          66.9393   92.7242   15.8853 C.3     1  UNL1        0.2520
     21 O          66.4405   91.5987   15.0284 O.2     1  UNL1       -0.4746
     22 N          64.4173   85.2255   13.6486 N.pl3   1  UNL1       -0.2128
     23 H          65.1297   85.4472   13.0063 H       1  UNL1        0.1738
     24 S          63.6988   83.9126   13.5482 S.O2    1  UNL1        0.0737
     25 O          62.4252   84.6346   13.2217 O.2     1  UNL1       -0.1499
     26 O          64.9724   83.1907   13.8748 O.2     1  UNL1       -0.1499
     27 C          62.9804   82.5997   13.4478 C.ar    1  UNL1        0.1274
     28 C          61.9188   82.2473   14.4473 C.ar    1  UNL1        0.0203
     29 C          61.2004   80.9344   14.3470 C.ar    1  UNL1        0.0037
     30 C          61.5435   79.9738   13.2473 C.ar    1  UNL1        0.0297
     31 C          62.6051   80.3262   12.2478 C.ar    1  UNL1        0.1415
     32 F          62.9482   79.3656   11.1480 F       1  UNL1       -0.2041
     33 C          63.3236   81.6391   12.3481 C.ar    1  UNL1        0.0498
@<TRIPOS>BOND
     1    20    21    1
     2    21    11    1
     3    11    12    2
     4    12    13    1
     5    13    14    2
     6    14    15    1
     7    15    16    2
     8    16    17    1
     9    17    18    2
    10    18     9    1
    11     9    10    2
    12     9     1    1
    13     1     2   ar
    14     2     3    1
    15     2     4   ar
    16     4     5   ar
    17     5     6   ar
    18     6    22    1
    19    22    24    1
    20    24    25    2
    21    24    26    2
    22    24    27    1
    23    27    28   ar
    24    28    29   ar
    25    29    30   ar
    26    30    31   ar
    27    31    32    1
    28    31    33   ar
    29     6     7   ar
    30     7     8    1
    31    18    19    1
    32    19    11    1
    33    19    15    1
    34     7     1   ar
    35    33    27   ar
    36    22    23    1
@<TRIPOS>MOLECULE
*****
 33 36 0 0 0
SMALL
GASTEIGER

@<TRIPOS>ATOM
      1 C          62.6458   86.4993   11.9129 C.ar    1  UNL1        0.0949
      2 C          61.6494   86.0846   10.8712 C.ar    1  UNL1        0.1454
      3 F          61.5105   84.6380   10.5000 F       1  UNL1       -0.2040
      4 C          60.7919   87.1167   10.2007 C.ar    1  UNL1        0.0312
      5 C          60.9308   88.5634   10.5719 C.ar    1  UNL1        0.0204
      6 C          61.9272   88.9781   11.6136 C.ar    1  UNL1        0.0924
      7 C          62.7847   87.9460   12.2841 C.ar    1  UNL1        0.1598
      8 F          63.7812   88.3606   13.3259 F       1  UNL1       -0.2026
      9 C          63.5034   85.4673   12.5835 C.2     1  UNL1        0.2007
     10 O          64.2700   85.8200   13.8235 O.2     1  UNL1       -0.2866
     11 C          62.2044   82.6135   13.8637 C.2     1  UNL1        0.1360
     12 C          61.7387   81.2313   14.2139 C.2     1  UNL1        0.0837
     13 C          62.0713   80.0775   13.3151 C.2     1  UNL1        0.2385
     14 N          62.8696   80.3057   12.0659 N.2     1  UNL1       -0.0338
     15 C          63.3354   81.6879   11.7156 C.2     1  UNL1        0.3626
     16 N          64.1323   82.2156   10.5595 N.2     1  UNL1       -0.0341
     17 C          64.2922   83.6956   10.7439 C.2     1  UNL1        0.2355
     18 C          63.5942   84.0825   12.0139 C.2     1  UNL1        0.0823
     19 C          63.0028   82.8417   12.6145 C.3     1  UNL1        0.1973
     20 C          62.6974   84.0256   15.9880 C.3     1  UNL1        0.2520
     21 O          61.8719   83.7673   14.7625 O.2     1  UNL1       -0.4746
     22 N          62.0661   90.4247   11.9848 N.pl3   1  UNL1       -0.2128
     23 H          61.2698   91.0026   12.0199 H       1  UNL1        0.1738
     24 S          63.4183   90.9910   12.3026 S.O2    1  UNL1        0.0737
     25 O          63.0520   91.0502   13.7559 O.2     1  UNL1       -0.1499
     26 O          63.7846   90.9318   10.8492 O.2     1  UNL1       -0.1499
     27 C          64.7705   91.5573   12.6202 C.ar    1  UNL1        0.1274
     28 C          65.4225   92.5190   11.6716 C.ar    1  UNL1        0.0203
     29 C          66.7747   93.0854   11.9891 C.ar    1  UNL1        0.0037
     30 C          67.4749   92.6899   13.2553 C.ar    1  UNL1        0.0297
     31 C          66.8229   91.7281   14.2039 C.ar    1  UNL1        0.1415
     32 F          67.5231   91.3327   15.4702 F       1  UNL1       -0.2041
     33 C          65.4707   91.1618   13.8864 C.ar    1  UNL1        0.0498
@<TRIPOS>BOND
     1    20    21    1
     2    21    11    1
     3    11    12    2
     4    12    13    1
     5    13    14    2
     6    14    15    1
     7    15    16    2
     8    16    17    1
     9    17    18    2
    10    18     9    1
    11     9    10    2
    12     9     1    1
    13     1     2   ar
    14     2     3    1
    15     2     4   ar
    16     4     5   ar
    17     5     6   ar
    18     6    22    1
    19    22    24    1
    20    24    25    2
    21    24    26    2
    22    24    27    1
    23    27    28   ar
    24    28    29   ar
    25    29    30   ar
    26    30    31   ar
    27    31    32    1
    28    31    33   ar
    29     6     7   ar
    30     7     8    1
    31    18    19    1
    32    19    11    1
    33    19    15    1
    34     7     1   ar
    35    33    27   ar
    36    22    23    1
@<TRIPOS>MOLECULE
*****
 33 36 0 0 0
SMALL
GASTEIGER

@<TRIPOS>ATOM
      1 C          64.0113   88.3612   15.5111 C.ar    1  UNL1        0.0949
      2 C          63.1500   88.7927   16.6609 C.ar    1  UNL1        0.1454
      3 F          62.8727   90.2497   16.8850 F       1  UNL1       -0.2040
      4 C          62.5660   87.7670   17.5866 C.ar    1  UNL1        0.0312
      5 C          62.8433   86.3100   17.3626 C.ar    1  UNL1        0.0204
      6 C          63.7046   85.8786   16.2128 C.ar    1  UNL1        0.0924
      7 C          64.2886   86.9042   15.2871 C.ar    1  UNL1        0.1598
      8 F          65.1499   86.4728   14.1373 F       1  UNL1       -0.2026
      9 C          64.5953   89.3869   14.5853 C.2     1  UNL1        0.2007
     10 O          65.8366   90.1316   14.9784 O.2     1  UNL1       -0.2866
     11 C          65.2216   91.9527   12.4653 C.2     1  UNL1        0.1360
     12 C          65.3072   92.9770   11.3729 C.2     1  UNL1        0.0837
     13 C          64.4170   92.8673   10.1705 C.2     1  UNL1        0.2385
     14 N          63.4413   91.7334   10.0607 N.2     1  UNL1       -0.0338
     15 C          63.3557   90.7092   11.1531 C.2     1  UNL1        0.3626
     16 N          62.4978   89.4902   11.3212 N.2     1  UNL1       -0.0341
     17 C          62.8578   88.8465   12.6273 C.2     1  UNL1        0.2355
     18 C          63.9381   89.6676   13.2665 C.2     1  UNL1        0.0823
     19 C          64.2458   90.8188   12.3555 C.3     1  UNL1        0.1973
     20 C          66.5090   93.4127   14.1861 C.3     1  UNL1        0.2520
     21 O          66.1118   92.0624   13.6677 O.2     1  UNL1       -0.4746
     22 N          63.9818   84.4215   15.9888 N.pl3   1  UNL1       -0.2128
     23 H          64.2967   83.8602   16.7337 H       1  UNL1        0.1738
     24 S          63.7793   83.8199   14.6298 S.O2    1  UNL1        0.0737
     25 O          65.2635   83.6648   14.4773 O.2     1  UNL1       -0.1499
     26 O          62.2952   83.9749   14.7823 O.2     1  UNL1       -0.1499
     27 C          63.5767   83.2182   13.2708 C.ar    1  UNL1        0.1274
     28 C          63.1780   81.7781   13.1400 C.ar    1  UNL1        0.0203
     29 C          62.9754   81.1763   11.7810 C.ar    1  UNL1        0.0037
     30 C          63.1715   82.0147   10.5528 C.ar    1  UNL1        0.0297
     31 C          63.5702   83.4548   10.6836 C.ar    1  UNL1        0.1415
     32 F          63.7663   84.2932    9.4553 F       1  UNL1       -0.2041
     33 C          63.7728   84.0566   12.0425 C.ar    1  UNL1        0.0498
@<TRIPOS>BOND
     1    20    21    1
     2    21    11    1
     3    11    12    2
     4    12    13    1
     5    13    14    2
     6    14    15    1
     7    15    16    2
     8    16    17    1
     9    17    18    2
    10    18     9    1
    11     9    10    2
    12     9     1    1
    13     1     2   ar
    14     2     3    1
    15     2     4   ar
    16     4     5   ar
    17     5     6   ar
    18     6    22    1
    19    22    24    1
    20    24    25    2
    21    24    26    2
    22    24    27    1
    23    27    28   ar
    24    28    29   ar
    25    29    30   ar
    26    30    31   ar
    27    31    32    1
    28    31    33   ar
    29     6     7   ar
    30     7     8    1
    31    18    19    1
    32    19    11    1
    33    19    15    1
    34     7     1   ar
    35    33    27   ar
    36    22    23    1
@<TRIPOS>MOLECULE
*****
 33 36 0 0 0
SMALL
GASTEIGER

@<TRIPOS>ATOM
      1 C          63.3049   87.7140   12.7206 C.ar    1  UNL1        0.0949
      2 C          64.0446   87.5309   14.0127 C.ar    1  UNL1        0.1454
      3 F          64.2249   86.1564   14.5854 F       1  UNL1       -0.2040
      4 C          64.6038   88.7225   14.7320 C.ar    1  UNL1        0.0312
      5 C          64.4234   90.0971   14.1593 C.ar    1  UNL1        0.0204
      6 C          63.6838   90.2801   12.8673 C.ar    1  UNL1        0.0924
      7 C          63.1246   89.0886   12.1479 C.ar    1  UNL1        0.1598
      8 F          62.3849   89.2716   10.8558 F       1  UNL1       -0.2026
      9 C          62.7456   86.5224   12.0012 C.2     1  UNL1        0.2007
     10 O          63.2098   85.1426   12.3622 O.2     1  UNL1       -0.2866
     11 C          62.7339   85.1592    8.9009 C.2     1  UNL1        0.1360
     12 C          62.4977   84.6915    7.4955 C.2     1  UNL1        0.0837
     13 C          61.2824   85.1514    6.7462 C.2     1  UNL1        0.2385
     14 N          60.3032   86.0790    7.4025 N.2     1  UNL1       -0.0338
     15 C          60.5394   86.5467    8.8079 C.2     1  UNL1        0.3626
     16 N          59.7558   87.4550    9.7085 N.2     1  UNL1       -0.0341
     17 C          60.4869   87.5565   11.0144 C.2     1  UNL1        0.2355
     18 C          61.7223   86.7109   10.9208 C.2     1  UNL1        0.0823
     19 C          61.7547   86.0868    9.5572 C.3     1  UNL1        0.1973
     20 C          64.1264   83.2450    9.9717 C.3     1  UNL1        0.2520
     21 O          63.9493   84.6993    9.6502 O.2     1  UNL1       -0.4746
     22 N          63.5034   91.6547   12.2946 N.pl3   1  UNL1       -0.2128
     23 H          62.6434   92.1225   12.3988 H       1  UNL1        0.1738
     24 S          64.6333   92.3166   11.5631 S.O2    1  UNL1        0.0737
     25 O          65.2164   92.7657   12.8701 O.2     1  UNL1       -0.1499
     26 O          64.0502   91.8676   10.2561 O.2     1  UNL1       -0.1499
     27 C          65.7632   92.9785   10.8315 C.ar    1  UNL1        0.1274
     28 C          65.7549   94.4643   10.6251 C.ar    1  UNL1        0.0203
     29 C          66.8848   95.1262    9.8935 C.ar    1  UNL1        0.0037
     30 C          68.0229   94.3025    9.3683 C.ar    1  UNL1        0.0297
     31 C          68.0312   92.8167    9.5746 C.ar    1  UNL1        0.1415
     32 F          69.1694   91.9929    9.0493 F       1  UNL1       -0.2041
     33 C          66.9014   92.1547   10.3062 C.ar    1  UNL1        0.0498
@<TRIPOS>BOND
     1    20    21    1
     2    21    11    1
     3    11    12    2
     4    12    13    1
     5    13    14    2
     6    14    15    1
     7    15    16    2
     8    16    17    1
     9    17    18    2
    10    18     9    1
    11     9    10    2
    12     9     1    1
    13     1     2   ar
    14     2     3    1
    15     2     4   ar
    16     4     5   ar
    17     5     6   ar
    18     6    22    1
    19    22    24    1
    20    24    25    2
    21    24    26    2
    22    24    27    1
    23    27    28   ar
    24    28    29   ar
    25    29    30   ar
    26    30    31   ar
    27    31    32    1
    28    31    33   ar
    29     6     7   ar
    30     7     8    1
    31    18    19    1
    32    19    11    1
    33    19    15    1
    34     7     1   ar
    35    33    27   ar
    36    22    23    1
@<TRIPOS>MOLECULE
*****
 33 36 0 0 0
SMALL
GASTEIGER

@<TRIPOS>ATOM
      1 C          62.7984   88.2284   12.2946 C.ar    1  UNL1        0.0949
      2 C          63.7081   87.7207   13.3738 C.ar    1  UNL1        0.1454
      3 F          63.7107   86.2633   13.7284 F       1  UNL1       -0.2040
      4 C          64.6151   88.6706   14.0984 C.ar    1  UNL1        0.0312
      5 C          64.6125   90.1280   13.7438 C.ar    1  UNL1        0.0204
      6 C          63.7028   90.6357   12.6645 C.ar    1  UNL1        0.0924
      7 C          62.7958   89.6859   11.9400 C.ar    1  UNL1        0.1598
      8 F          61.8861   90.1935   10.8607 F       1  UNL1       -0.2026
      9 C          61.8913   87.2786   11.5699 C.2     1  UNL1        0.2007
     10 O          60.4068   87.3606   11.7683 O.2     1  UNL1       -0.2866
     11 C          62.6523   84.0567   12.2841 C.2     1  UNL1        0.1360
     12 C          63.0681   82.6166   12.3424 C.2     1  UNL1        0.0837
     13 C          63.6235   81.9463   11.1209 C.2     1  UNL1        0.2385
     14 N          63.7631   82.7159    9.8411 N.2     1  UNL1       -0.0338
     15 C          63.3474   84.1559    9.7827 C.2     1  UNL1        0.3626
     16 N          63.3674   85.1622    8.6705 N.2     1  UNL1       -0.0341
     17 C          62.8243   86.4544    9.2045 C.2     1  UNL1        0.2355
     18 C          62.4687   86.2468   10.6469 C.2     1  UNL1        0.0823
     19 C          62.7920   84.8263   11.0043 C.3     1  UNL1        0.1973
     20 C          62.1542   84.0324   14.8339 C.3     1  UNL1        0.2520
     21 O          62.0969   84.7270   13.5057 O.2     1  UNL1       -0.4746
     22 N          63.7003   92.0932   12.3099 N.pl3   1  UNL1       -0.2128
     23 H          62.9574   92.6695   12.6019 H       1  UNL1        0.1738
     24 S          64.8295   92.6726   11.5105 S.O2    1  UNL1        0.0737
     25 O          64.1955   92.1670   10.2486 O.2     1  UNL1       -0.1499
     26 O          65.4635   93.1782   12.7724 O.2     1  UNL1       -0.1499
     27 C          65.9588   93.2520   10.7112 C.ar    1  UNL1        0.1274
     28 C          66.0065   94.7265   10.4399 C.ar    1  UNL1        0.0203
     29 C          67.1357   95.3060    9.6406 C.ar    1  UNL1        0.0037
     30 C          68.2174   94.4110    9.1125 C.ar    1  UNL1        0.0297
     31 C          68.1697   92.9364    9.3837 C.ar    1  UNL1        0.1415
     32 F          69.2514   92.0414    8.8556 F       1  UNL1       -0.2041
     33 C          67.0404   92.3569   10.1831 C.ar    1  UNL1        0.0498
@<TRIPOS>BOND
     1    20    21    1
     2    21    11    1
     3    11    12    2
     4    12    13    1
     5    13    14    2
     6    14    15    1
     7    15    16    2
     8    16    17    1
     9    17    18    2
    10    18     9    1
    11     9    10    2
    12     9     1    1
    13     1     2   ar
    14     2     3    1
    15     2     4   ar
    16     4     5   ar
    17     5     6   ar
    18     6    22    1
    19    22    24    1
    20    24    25    2
    21    24    26    2
    22    24    27    1
    23    27    28   ar
    24    28    29   ar
    25    29    30   ar
    26    30    31   ar
    27    31    32    1
    28    31    33   ar
    29     6     7   ar
    30     7     8    1
    31    18    19    1
    32    19    11    1
    33    19    15    1
    34     7     1   ar
    35    33    27   ar
    36    22    23    1
@<TRIPOS>MOLECULE
*****
 33 36 0 0 0
SMALL
GASTEIGER

@<TRIPOS>ATOM
      1 C          62.5125   85.4869   10.1699 C.ar    1  UNL1        0.0949
      2 C          61.9230   85.3098    8.8020 C.ar    1  UNL1        0.1454
      3 F          62.1483   84.0330    8.0478 F       1  UNL1       -0.2040
      4 C          61.1081   86.4096    8.1885 C.ar    1  UNL1        0.0312
      5 C          60.8828   87.6865    8.9427 C.ar    1  UNL1        0.0204
      6 C          61.4724   87.8636   10.3106 C.ar    1  UNL1        0.0924
      7 C          62.2872   86.7638   10.9241 C.ar    1  UNL1        0.1598
      8 F          62.8768   86.9408   12.2920 F       1  UNL1       -0.2026
      9 C          63.3274   84.3871   10.7836 C.2     1  UNL1        0.2007
     10 O          64.4403   83.7533   10.0029 O.2     1  UNL1       -0.2866
     11 C          62.7848   81.2133   11.8337 C.2     1  UNL1        0.1360
     12 C          62.5142   79.9195   12.5427 C.2     1  UNL1        0.0837
     13 C          62.2532   79.9140   14.0198 C.2     1  UNL1        0.2385
     14 N          62.2629   81.2023   14.7879 N.2     1  UNL1       -0.0338
     15 C          62.5336   82.4961   14.0789 C.2     1  UNL1        0.3626
     16 N          62.6070   83.9123   14.5678 N.2     1  UNL1       -0.0341
     17 C          62.9132   84.7931   13.3929 C.2     1  UNL1        0.2355
     18 C          63.0292   83.9212   12.1779 C.2     1  UNL1        0.0823
     19 C          62.7946   82.5016   12.6018 C.3     1  UNL1        0.1973
     20 C          62.9878   79.9368    9.5799 C.3     1  UNL1        0.2520
     21 O          63.0458   81.2188   10.3566 O.2     1  UNL1       -0.4746
     22 N          61.2471   89.1404   11.0648 N.pl3   1  UNL1       -0.2128
     23 H          60.3311   89.4299   11.2800 H       1  UNL1        0.1738
     24 S          62.4175   89.9762   11.4911 S.O2    1  UNL1        0.0737
     25 O          62.0665   89.7341   12.9292 O.2     1  UNL1       -0.1499
     26 O          62.7684   90.2182   10.0529 O.2     1  UNL1       -0.1499
     27 C          63.5878   90.8119   11.9172 C.ar    1  UNL1        0.1274
     28 C          64.2170   91.7702   10.9498 C.ar    1  UNL1        0.0203
     29 C          65.3874   92.6060   11.3759 C.ar    1  UNL1        0.0037
     30 C          65.9287   92.4836   12.7695 C.ar    1  UNL1        0.0297
     31 C          65.2995   91.5253   13.7369 C.ar    1  UNL1        0.1415
     32 F          65.8407   91.4029   15.1304 F       1  UNL1       -0.2041
     33 C          64.1291   90.6895   13.3108 C.ar    1  UNL1        0.0498
@<TRIPOS>BOND
     1    20    21    1
     2    21    11    1
     3    11    12    2
     4    12    13    1
     5    13    14    2
     6    14    15    1
     7    15    16    2
     8    16    17    1
     9    17    18    2
    10    18     9    1
    11     9    10    2
    12     9     1    1
    13     1     2   ar
    14     2     3    1
    15     2     4   ar
    16     4     5   ar
    17     5     6   ar
    18     6    22    1
    19    22    24    1
    20    24    25    2
    21    24    26    2
    22    24    27    1
    23    27    28   ar
    24    28    29   ar
    25    29    30   ar
    26    30    31   ar
    27    31    32    1
    28    31    33   ar
    29     6     7   ar
    30     7     8    1
    31    18    19    1
    32    19    11    1
    33    19    15    1
    34     7     1   ar
    35    33    27   ar
    36    22    23    1
