@<TRIPOS>MOLECULE
*****
 29 33 0 0 0
SMALL
GASTEIGER

@<TRIPOS>ATOM
      1 C          62.7891   88.7318   11.9308 C.ar    1  UNL1        0.1452
      2 N          63.5657   88.2180   13.1067 N.ar    1  UNL1       -0.2289
      3 C          63.4739   86.7209   13.1044 C.ar    1  UNL1        0.0992
      4 C          64.0415   85.6790   14.0223 C.ar    1  UNL1        0.0320
      5 C          63.7757   84.2258   13.7628 C.ar    1  UNL1        0.0593
      6 CL         64.3434   83.1840   14.6807 Cl      1  UNL1       -0.0822
      7 C          62.9424   83.8142   12.5855 C.ar    1  UNL1        0.0130
      8 C          62.3748   84.8560   11.6676 C.ar    1  UNL1        0.0196
      9 C          62.6406   86.3093   11.9271 C.ar    1  UNL1        0.0787
     10 N          62.2173   87.5522   11.2017 N.ar    1  UNL1       -0.3131
     11 C          62.6149   90.1724   11.5506 C.3     1  UNL1        0.1908
     12 C          65.5505   92.6689   11.0873 C.ar    1  UNL1        0.2069
     13 N          64.4528   91.8177   10.5211 N.ar    1  UNL1       -0.1501
     14 N          63.7704   91.1224   11.6616 N.ar    1  UNL1       -0.2404
     15 C          64.4463   91.5439   12.9327 C.ar    1  UNL1        0.1003
     16 C          64.2021   91.1808   14.3674 C.ar    1  UNL1        0.1176
     17 N          65.0581   91.7735   15.4471 N.ar    1  UNL1       -0.2408
     18 C          66.1583   92.7293   15.0921 C.ar    1  UNL1        0.0991
     19 C          66.4025   93.0924   13.6574 C.ar    1  UNL1        0.0251
     20 C          65.5465   92.4997   12.5777 C.ar    1  UNL1        0.0572
     21 C          67.4249   94.4051    9.5148 C.3     1  UNL1        0.1835
     22 S          66.4877   93.5370   10.3010 S.O2    1  UNL1        0.0285
     23 O          67.3790   92.3552   10.0587 O.2     1  UNL1       -0.1671
     24 O          65.5963   94.7188   10.5434 O.2     1  UNL1       -0.1671
     25 C          61.3709   87.6060    9.9646 C.3     1  UNL1        0.1122
     26 C          61.5827   86.6059    8.8668 C.3     1  UNL1        0.0818
     27 C          62.7472   85.7945    8.3813 C.3     1  UNL1        0.1465
     28 O          61.8822   85.1915    7.3145 O.3     1  UNL1       -0.3535
     29 C          60.7177   86.0029    7.7999 C.3     1  UNL1        0.1465
@<TRIPOS>BOND
     1    21    22    1
     2    22    23    2
     3    22    24    2
     4    22    12    1
     5    12    13   ar
     6    13    14   ar
     7    14    11    1
     8    11     1    1
     9     1     2   ar
    10     2     3   ar
    11     3     4   ar
    12     4     5   ar
    13     5     6    1
    14     5     7   ar
    15     7     8   ar
    16     8     9   ar
    17     9    10   ar
    18    10    25    1
    19    25    26    1
    20    26    27    1
    21    27    28    1
    22    28    29    1
    23    14    15   ar
    24    15    16   ar
    25    16    17   ar
    26    17    18   ar
    27    18    19   ar
    28    19    20   ar
    29    20    12   ar
    30    10     1   ar
    31    29    26    1
    32    20    15   ar
    33     9     3   ar
@<TRIPOS>MOLECULE
*****
 29 33 0 0 0
SMALL
GASTEIGER

@<TRIPOS>ATOM
      1 C          62.9867   90.6335   12.0192 C.ar    1  UNL1        0.1452
      2 N          63.4991   91.1915   10.7246 N.ar    1  UNL1       -0.2289
      3 C          64.6678   92.0797   11.0330 C.ar    1  UNL1        0.0992
      4 C          65.5681   92.8955   10.1533 C.ar    1  UNL1        0.0320
      5 C          66.6782   93.7023   10.7587 C.ar    1  UNL1        0.0593
      6 CL         67.5785   94.5182    9.8789 Cl      1  UNL1       -0.0822
      7 C          66.8882   93.6933   12.2439 C.ar    1  UNL1        0.0130
      8 C          65.9880   92.8774   13.1236 C.ar    1  UNL1        0.0196
      9 C          64.8778   92.0706   12.5181 C.ar    1  UNL1        0.0787
     10 N          63.8388   91.1768   13.1277 N.ar    1  UNL1       -0.3131
     11 C          61.8259   89.6966   12.1776 C.3     1  UNL1        0.1908
     12 C          62.2690   86.0824   10.8335 C.ar    1  UNL1        0.2069
     13 N          62.5706   87.1515   11.8415 N.ar    1  UNL1       -0.1501
     14 N          61.8150   88.3860   11.4480 N.ar    1  UNL1       -0.2404
     15 C          61.0465   88.0800   10.1967 C.ar    1  UNL1        0.1003
     16 C          60.1274   88.9138    9.3540 C.ar    1  UNL1        0.1176
     17 N          59.4890   88.3239    8.1316 N.ar    1  UNL1       -0.2408
     18 C          59.7697   86.9002    7.7518 C.ar    1  UNL1        0.0991
     19 C          60.6887   86.0664    8.5944 C.ar    1  UNL1        0.0251
     20 C          61.3271   86.6563    9.8169 C.ar    1  UNL1        0.0572
     21 C          63.3586   83.2873   10.8478 C.3     1  UNL1        0.1835
     22 S          62.8138   84.6849   10.8407 S.O2    1  UNL1        0.0285
     23 O          62.3421   84.5083   12.2535 O.2     1  UNL1       -0.1671
     24 O          63.2855   84.8614    9.4278 O.2     1  UNL1       -0.1671
     25 C          63.6798   90.8787   14.5891 C.3     1  UNL1        0.1122
     26 C          63.7414   89.4613   15.0765 C.3     1  UNL1        0.0818
     27 C          63.2233   88.7299   16.2792 C.3     1  UNL1        0.1465
     28 O          63.8285   87.4570   15.7657 O.3     1  UNL1       -0.3535
     29 C          64.3467   88.1885   14.5630 C.3     1  UNL1        0.1465
@<TRIPOS>BOND
     1    21    22    1
     2    22    23    2
     3    22    24    2
     4    22    12    1
     5    12    13   ar
     6    13    14   ar
     7    14    11    1
     8    11     1    1
     9     1     2   ar
    10     2     3   ar
    11     3     4   ar
    12     4     5   ar
    13     5     6    1
    14     5     7   ar
    15     7     8   ar
    16     8     9   ar
    17     9    10   ar
    18    10    25    1
    19    25    26    1
    20    26    27    1
    21    27    28    1
    22    28    29    1
    23    14    15   ar
    24    15    16   ar
    25    16    17   ar
    26    17    18   ar
    27    18    19   ar
    28    19    20   ar
    29    20    12   ar
    30    10     1   ar
    31    29    26    1
    32    20    15   ar
    33     9     3   ar
@<TRIPOS>MOLECULE
*****
 29 33 0 0 0
SMALL
GASTEIGER

@<TRIPOS>ATOM
      1 C          63.5418   90.9893   12.3375 C.ar    1  UNL1        0.1452
      2 N          63.8713   90.6304   13.7561 N.ar    1  UNL1       -0.2289
      3 C          65.1901   91.2576   14.0985 C.ar    1  UNL1        0.0992
      4 C          66.0117   91.2455   15.3535 C.ar    1  UNL1        0.0320
      5 C          67.3188   91.9798   15.4014 C.ar    1  UNL1        0.0593
      6 CL         68.1403   91.9676   16.6564 Cl      1  UNL1       -0.0822
      7 C          67.8043   92.7264   14.1944 C.ar    1  UNL1        0.0130
      8 C          66.9828   92.7385   12.9394 C.ar    1  UNL1        0.0196
      9 C          65.6757   92.0042   12.8915 C.ar    1  UNL1        0.0787
     10 N          64.6569   91.8384   11.8031 N.ar    1  UNL1       -0.3131
     11 C          62.3127   90.5724   11.5852 C.3     1  UNL1        0.1908
     12 C          62.2836   86.7134   11.1700 C.ar    1  UNL1        0.2069
     13 N          62.7571   87.9521   11.8710 N.ar    1  UNL1       -0.1501
     14 N          62.1177   89.1344   11.2053 N.ar    1  UNL1       -0.2404
     15 C          61.2491   88.6265   10.0929 C.ar    1  UNL1        0.1003
     16 C          60.3780   89.3331    9.0970 C.ar    1  UNL1        0.1176
     17 N          59.6095   88.5435    8.0793 N.ar    1  UNL1       -0.2408
     18 C          59.7120   87.0471    8.0575 C.ar    1  UNL1        0.0991
     19 C          60.5831   86.3405    9.0534 C.ar    1  UNL1        0.0251
     20 C          61.3516   87.1301   10.0711 C.ar    1  UNL1        0.0572
     21 C          63.0637   83.8968   11.8472 C.3     1  UNL1        0.1835
     22 S          62.6737   85.3051   11.5085 S.O2    1  UNL1        0.0285
     23 O          62.9908   85.0460   10.0656 O.2     1  UNL1       -0.1671
     24 O          62.3566   85.5641   12.9516 O.2     1  UNL1       -0.1671
     25 C          64.7389   92.4195   10.4227 C.3     1  UNL1        0.1122
     26 C          65.6497   93.5799   10.1503 C.3     1  UNL1        0.0818
     27 C          65.6140   95.0493   10.4497 C.3     1  UNL1        0.1465
     28 O          66.9376   95.2208    9.7651 O.3     1  UNL1       -0.3535
     29 C          66.9733   93.7514    9.4657 C.3     1  UNL1        0.1465
@<TRIPOS>BOND
     1    21    22    1
     2    22    23    2
     3    22    24    2
     4    22    12    1
     5    12    13   ar
     6    13    14   ar
     7    14    11    1
     8    11     1    1
     9     1     2   ar
    10     2     3   ar
    11     3     4   ar
    12     4     5   ar
    13     5     6    1
    14     5     7   ar
    15     7     8   ar
    16     8     9   ar
    17     9    10   ar
    18    10    25    1
    19    25    26    1
    20    26    27    1
    21    27    28    1
    22    28    29    1
    23    14    15   ar
    24    15    16   ar
    25    16    17   ar
    26    17    18   ar
    27    18    19   ar
    28    19    20   ar
    29    20    12   ar
    30    10     1   ar
    31    29    26    1
    32    20    15   ar
    33     9     3   ar
@<TRIPOS>MOLECULE
*****
 29 33 0 0 0
SMALL
GASTEIGER

@<TRIPOS>ATOM
      1 C          63.3162   88.9417   13.2748 C.ar    1  UNL1        0.1452
      2 N          63.9771   87.9046   14.1336 N.ar    1  UNL1       -0.2289
      3 C          63.7907   86.5700   13.4748 C.ar    1  UNL1        0.0992
      4 C          64.2274   85.1888   13.8641 C.ar    1  UNL1        0.0320
      5 C          63.8880   84.0199   12.9875 C.ar    1  UNL1        0.0593
      6 CL         64.3248   82.6387   13.3768 Cl      1  UNL1       -0.0822
      7 C          63.1120   84.2321   11.7215 C.ar    1  UNL1        0.0130
      8 C          62.6753   85.6134   11.3323 C.ar    1  UNL1        0.0196
      9 C          63.0147   86.7822   12.2089 C.ar    1  UNL1        0.0787
     10 N          62.7214   88.2481   12.0853 N.ar    1  UNL1       -0.3131
     11 C          63.2600   90.4141   13.5562 C.3     1  UNL1        0.1908
     12 C          66.0260   92.5719   11.8955 C.ar    1  UNL1        0.2069
     13 N          64.8159   91.6910   11.7973 N.ar    1  UNL1       -0.1501
     14 N          64.4185   91.2928   13.1879 N.ar    1  UNL1       -0.2404
     15 C          65.3829   91.9277   14.1454 C.ar    1  UNL1        0.1003
     16 C          65.4848   91.8881   15.6413 C.ar    1  UNL1        0.1176
     17 N          66.5802   92.6390   16.3386 N.ar    1  UNL1       -0.2408
     18 C          67.5737   93.4295   15.5398 C.ar    1  UNL1        0.0991
     19 C          67.4719   93.4691   14.0438 C.ar    1  UNL1        0.0251
     20 C          66.3765   92.7182   13.3466 C.ar    1  UNL1        0.0572
     21 C          67.4886   93.8218    9.5936 C.3     1  UNL1        0.1835
     22 S          66.7573   93.1968   10.7445 S.O2    1  UNL1        0.0285
     23 O          67.8984   92.2460   10.9533 O.2     1  UNL1       -0.1671
     24 O          65.6162   94.1477   10.5358 O.2     1  UNL1       -0.1671
     25 C          61.9659   88.9050   10.9683 C.3     1  UNL1        0.1122
     26 C          60.6688   89.6040   11.2494 C.3     1  UNL1        0.0818
     27 C          59.6369   89.5284   12.3354 C.3     1  UNL1        0.1465
     28 O          58.8346   90.5926   11.6470 O.3     1  UNL1       -0.3535
     29 C          59.8666   90.6682   10.5610 C.3     1  UNL1        0.1465
@<TRIPOS>BOND
     1    21    22    1
     2    22    23    2
     3    22    24    2
     4    22    12    1
     5    12    13   ar
     6    13    14   ar
     7    14    11    1
     8    11     1    1
     9     1     2   ar
    10     2     3   ar
    11     3     4   ar
    12     4     5   ar
    13     5     6    1
    14     5     7   ar
    15     7     8   ar
    16     8     9   ar
    17     9    10   ar
    18    10    25    1
    19    25    26    1
    20    26    27    1
    21    27    28    1
    22    28    29    1
    23    14    15   ar
    24    15    16   ar
    25    16    17   ar
    26    17    18   ar
    27    18    19   ar
    28    19    20   ar
    29    20    12   ar
    30    10     1   ar
    31    29    26    1
    32    20    15   ar
    33     9     3   ar
@<TRIPOS>MOLECULE
*****
 29 33 0 0 0
SMALL
GASTEIGER

@<TRIPOS>ATOM
      1 C          63.0548   89.5045   12.9445 C.ar    1  UNL1        0.1452
      2 N          62.1917   89.6669   11.7284 N.ar    1  UNL1       -0.2289
      3 C          62.0067   88.3141   11.1074 C.ar    1  UNL1        0.0992
      4 C          61.2533   87.8624    9.8916 C.ar    1  UNL1        0.0320
      5 C          61.2485   86.4123    9.5080 C.ar    1  UNL1        0.0593
      6 CL         60.4950   85.9607    8.2921 Cl      1  UNL1       -0.0822
      7 C          61.9971   85.4138   10.3401 C.ar    1  UNL1        0.0130
      8 C          62.7506   85.8655   11.5560 C.ar    1  UNL1        0.0196
      9 C          62.7554   87.3156   11.9396 C.ar    1  UNL1        0.0787
     10 N          63.4031   88.0514   13.0750 N.ar    1  UNL1       -0.3131
     11 C          63.4926   90.6025   13.8680 C.3     1  UNL1        0.1908
     12 C          66.0709   92.9122   12.1122 C.ar    1  UNL1        0.2069
     13 N          64.8837   91.9968   12.0608 N.ar    1  UNL1       -0.1501
     14 N          64.5959   91.5322   13.4577 N.ar    1  UNL1       -0.2404
     15 C          65.6052   92.1606   14.3724 C.ar    1  UNL1        0.1003
     16 C          65.8118   92.0663   15.8551 C.ar    1  UNL1        0.1176
     17 N          66.9301   92.8249   16.5061 N.ar    1  UNL1       -0.2408
     18 C          67.8417   93.6778   15.6745 C.ar    1  UNL1        0.0991
     19 C          67.6350   93.7721   14.1918 C.ar    1  UNL1        0.0251
     20 C          66.5167   93.0135   13.5408 C.ar    1  UNL1        0.0572
     21 C          67.3321   94.2974    9.7690 C.3     1  UNL1        0.1835
     22 S          66.7015   93.6048   10.9406 S.O2    1  UNL1        0.0285
     23 O          65.6523   94.6746   11.0083 O.2     1  UNL1       -0.1671
     24 O          67.7507   92.5350   10.8729 O.2     1  UNL1       -0.1671
     25 C          64.2505   87.4411   14.1518 C.3     1  UNL1        0.1122
     26 C          63.7017   87.2833   15.5390 C.3     1  UNL1        0.0818
     27 C          63.1865   88.2225   16.5889 C.3     1  UNL1        0.1465
     28 O          62.9257   87.0602   17.5005 O.3     1  UNL1       -0.3535
     29 C          63.4409   86.1210   16.4506 C.3     1  UNL1        0.1465
@<TRIPOS>BOND
     1    21    22    1
     2    22    23    2
     3    22    24    2
     4    22    12    1
     5    12    13   ar
     6    13    14   ar
     7    14    11    1
     8    11     1    1
     9     1     2   ar
    10     2     3   ar
    11     3     4   ar
    12     4     5   ar
    13     5     6    1
    14     5     7   ar
    15     7     8   ar
    16     8     9   ar
    17     9    10   ar
    18    10    25    1
    19    25    26    1
    20    26    27    1
    21    27    28    1
    22    28    29    1
    23    14    15   ar
    24    15    16   ar
    25    16    17   ar
    26    17    18   ar
    27    18    19   ar
    28    19    20   ar
    29    20    12   ar
    30    10     1   ar
    31    29    26    1
    32    20    15   ar
    33     9     3   ar
@<TRIPOS>MOLECULE
*****
 29 33 0 0 0
SMALL
GASTEIGER

@<TRIPOS>ATOM
      1 C          63.0739   88.4291   12.2171 C.ar    1  UNL1        0.1452
      2 N          63.7425   87.7804   13.3927 N.ar    1  UNL1       -0.2289
      3 C          63.5402   86.2983   13.2812 C.ar    1  UNL1        0.0992
      4 C          63.9762   85.1575   14.1521 C.ar    1  UNL1        0.0320
      5 C          63.6185   83.7495   13.7785 C.ar    1  UNL1        0.0593
      6 CL         64.0545   82.6087   14.6495 Cl      1  UNL1       -0.0822
      7 C          62.8248   83.4822   12.5341 C.ar    1  UNL1        0.0130
      8 C          62.3889   84.6230   11.6632 C.ar    1  UNL1        0.0196
      9 C          62.7466   86.0310   12.0368 C.ar    1  UNL1        0.0787
     10 N          62.4583   87.3480   11.3791 N.ar    1  UNL1       -0.3131
     11 C          63.0287   89.9008   11.9299 C.3     1  UNL1        0.1908
     12 C          65.6631   91.8269   14.0312 C.ar    1  UNL1        0.2069
     13 N          64.6528   90.7278   13.8853 N.ar    1  UNL1       -0.1501
     14 N          64.0756   90.8093   12.5032 N.ar    1  UNL1       -0.2404
     15 C          64.7292   91.9587   11.7949 C.ar    1  UNL1        0.1003
     16 C          64.5577   92.5139   10.4120 C.ar    1  UNL1        0.1176
     17 N          65.3673   93.6980    9.9735 N.ar    1  UNL1       -0.2408
     18 C          66.3484   94.3270   10.9179 C.ar    1  UNL1        0.0991
     19 C          66.5199   93.7718   12.3008 C.ar    1  UNL1        0.0251
     20 C          65.7103   92.5876   12.7392 C.ar    1  UNL1        0.0572
     21 C          67.3015   92.4027   16.4774 C.3     1  UNL1        0.1835
     22 S          66.4823   92.1148   15.2543 S.O2    1  UNL1        0.0285
     23 O          67.6990   91.5685   14.5679 O.2     1  UNL1       -0.1671
     24 O          65.2656   92.6611   15.9407 O.2     1  UNL1       -0.1671
     25 C          61.6896   87.5486   10.1068 C.3     1  UNL1        0.1122
     26 C          61.8356   86.5694    8.9799 C.3     1  UNL1        0.0818
     27 C          62.9504   85.7130    8.4567 C.3     1  UNL1        0.1465
     28 O          62.0420   85.1847    7.3863 O.3     1  UNL1       -0.3535
     29 C          60.9272   86.0411    7.9095 C.3     1  UNL1        0.1465
@<TRIPOS>BOND
     1    21    22    1
     2    22    23    2
     3    22    24    2
     4    22    12    1
     5    12    13   ar
     6    13    14   ar
     7    14    11    1
     8    11     1    1
     9     1     2   ar
    10     2     3   ar
    11     3     4   ar
    12     4     5   ar
    13     5     6    1
    14     5     7   ar
    15     7     8   ar
    16     8     9   ar
    17     9    10   ar
    18    10    25    1
    19    25    26    1
    20    26    27    1
    21    27    28    1
    22    28    29    1
    23    14    15   ar
    24    15    16   ar
    25    16    17   ar
    26    17    18   ar
    27    18    19   ar
    28    19    20   ar
    29    20    12   ar
    30    10     1   ar
    31    29    26    1
    32    20    15   ar
    33     9     3   ar
@<TRIPOS>MOLECULE
*****
 29 33 0 0 0
SMALL
GASTEIGER

@<TRIPOS>ATOM
      1 C          62.5600   89.3935   12.2446 C.ar    1  UNL1        0.1452
      2 N          61.6158   89.9668   11.2299 N.ar    1  UNL1       -0.2289
      3 C          61.1758   88.8540   10.3254 C.ar    1  UNL1        0.0992
      4 C          60.2498   88.8261    9.1457 C.ar    1  UNL1        0.0320
      5 C          59.9961   87.5371    8.4217 C.ar    1  UNL1        0.0593
      6 CL         59.0701   87.5093    7.2419 Cl      1  UNL1       -0.0822
      7 C          60.6684   86.2761    8.8774 C.ar    1  UNL1        0.0130
      8 C          61.5943   86.3040   10.0571 C.ar    1  UNL1        0.0196
      9 C          61.8480   87.5930   10.7811 C.ar    1  UNL1        0.0787
     10 N          62.7035   87.9264   11.9673 N.ar    1  UNL1       -0.3131
     11 C          63.2411   90.1538   13.3438 C.3     1  UNL1        0.1908
     12 C          65.8109   92.6071   11.7809 C.ar    1  UNL1        0.2069
     13 N          64.6772   91.6346   11.6438 N.ar    1  UNL1       -0.1501
     14 N          64.3212   91.1414   13.0149 N.ar    1  UNL1       -0.2404
     15 C          65.2349   91.8091   13.9995 C.ar    1  UNL1        0.1003
     16 C          65.3474   91.7092   15.4919 C.ar    1  UNL1        0.1176
     17 N          66.3807   92.5153   16.2216 N.ar    1  UNL1       -0.2408
     18 C          67.3014   93.4212   15.4590 C.ar    1  UNL1        0.0991
     19 C          67.1889   93.5210   13.9666 C.ar    1  UNL1        0.0251
     20 C          66.1556   92.7150   13.2368 C.ar    1  UNL1        0.0572
     21 C          67.1534   94.0782    9.5374 C.3     1  UNL1        0.1835
     22 S          66.4821   93.3427   10.6592 S.O2    1  UNL1        0.0285
     23 O          65.3278   94.2983   10.5950 O.2     1  UNL1       -0.1671
     24 O          67.6366   92.3871   10.7233 O.2     1  UNL1       -0.1671
     25 C          63.5534   86.9620   12.7404 C.3     1  UNL1        0.1122
     26 C          63.1840   85.5089   12.7891 C.3     1  UNL1        0.0818
     27 C          63.3964   84.3298   11.8866 C.3     1  UNL1        0.1465
     28 O          62.6616   83.4541   12.8580 O.3     1  UNL1       -0.3535
     29 C          62.4492   84.6333   13.7604 C.3     1  UNL1        0.1465
@<TRIPOS>BOND
     1    21    22    1
     2    22    23    2
     3    22    24    2
     4    22    12    1
     5    12    13   ar
     6    13    14   ar
     7    14    11    1
     8    11     1    1
     9     1     2   ar
    10     2     3   ar
    11     3     4   ar
    12     4     5   ar
    13     5     6    1
    14     5     7   ar
    15     7     8   ar
    16     8     9   ar
    17     9    10   ar
    18    10    25    1
    19    25    26    1
    20    26    27    1
    21    27    28    1
    22    28    29    1
    23    14    15   ar
    24    15    16   ar
    25    16    17   ar
    26    17    18   ar
    27    18    19   ar
    28    19    20   ar
    29    20    12   ar
    30    10     1   ar
    31    29    26    1
    32    20    15   ar
    33     9     3   ar
@<TRIPOS>MOLECULE
*****
 29 33 0 0 0
SMALL
GASTEIGER

@<TRIPOS>ATOM
      1 C          62.8383   88.5797   12.3611 C.ar    1  UNL1        0.1452
      2 N          62.3671   87.6714   11.2643 N.ar    1  UNL1       -0.2289
      3 C          62.8117   86.2773   11.5940 C.ar    1  UNL1        0.0992
      4 C          62.6337   84.9713   10.8780 C.ar    1  UNL1        0.0320
      5 C          63.2016   83.7120   11.4625 C.ar    1  UNL1        0.0593
      6 CL         63.0236   82.4060   10.7464 Cl      1  UNL1       -0.0822
      7 C          63.9476   83.7587   12.7630 C.ar    1  UNL1        0.0130
      8 C          64.1257   85.0647   13.4790 C.ar    1  UNL1        0.0196
      9 C          63.5577   86.3240   12.8945 C.ar    1  UNL1        0.0787
     10 N          63.5742   87.7470   13.3686 N.ar    1  UNL1       -0.3131
     11 C          62.6132   90.0609   12.4370 C.3     1  UNL1        0.1908
     12 C          65.4859   92.4452   11.3752 C.ar    1  UNL1        0.2069
     13 N          64.3370   91.5440   11.0320 N.ar    1  UNL1       -0.1501
     14 N          63.7736   91.0032   12.3127 N.ar    1  UNL1       -0.2404
     15 C          64.5744   91.5702   13.4474 C.ar    1  UNL1        0.1003
     16 C          64.4767   91.3900   14.9333 C.ar    1  UNL1        0.1176
     17 N          65.4372   92.1011   15.8397 N.ar    1  UNL1       -0.2408
     18 C          66.4955   92.9923   15.2602 C.ar    1  UNL1        0.0991
     19 C          66.5932   93.1725   13.7743 C.ar    1  UNL1        0.0251
     20 C          65.6327   92.4614   12.8679 C.ar    1  UNL1        0.0572
     21 C          67.1912   93.9509    9.4193 C.3     1  UNL1        0.1835
     22 S          66.3385   93.1981   10.3973 S.O2    1  UNL1        0.0285
     23 O          65.4111   94.3729   10.4931 O.2     1  UNL1       -0.1671
     24 O          67.2661   92.0231   10.3014 O.2     1  UNL1       -0.1671
     25 C          64.2141   88.2491   14.6289 C.3     1  UNL1        0.1122
     26 C          63.6377   87.8764   15.9627 C.3     1  UNL1        0.0818
     27 C          63.3818   86.5866   16.6845 C.3     1  UNL1        0.1465
     28 O          62.8226   87.3493   17.8489 O.3     1  UNL1       -0.3535
     29 C          63.0785   88.6391   17.1270 C.3     1  UNL1        0.1465
@<TRIPOS>BOND
     1    21    22    1
     2    22    23    2
     3    22    24    2
     4    22    12    1
     5    12    13   ar
     6    13    14   ar
     7    14    11    1
     8    11     1    1
     9     1     2   ar
    10     2     3   ar
    11     3     4   ar
    12     4     5   ar
    13     5     6    1
    14     5     7   ar
    15     7     8   ar
    16     8     9   ar
    17     9    10   ar
    18    10    25    1
    19    25    26    1
    20    26    27    1
    21    27    28    1
    22    28    29    1
    23    14    15   ar
    24    15    16   ar
    25    16    17   ar
    26    17    18   ar
    27    18    19   ar
    28    19    20   ar
    29    20    12   ar
    30    10     1   ar
    31    29    26    1
    32    20    15   ar
    33     9     3   ar
@<TRIPOS>MOLECULE
*****
 29 33 0 0 0
SMALL
GASTEIGER

@<TRIPOS>ATOM
      1 C          63.2012   89.0347   13.3472 C.ar    1  UNL1        0.1452
      2 N          62.3941   89.3035   12.1118 N.ar    1  UNL1       -0.2289
      3 C          62.2705   88.0174   11.3499 C.ar    1  UNL1        0.0992
      4 C          61.5870   87.6774   10.0587 C.ar    1  UNL1        0.0320
      5 C          61.6342   86.2737    9.5320 C.ar    1  UNL1        0.0593
      6 CL         60.9507   85.9337    8.2408 Cl      1  UNL1       -0.0822
      7 C          62.3650   85.2099   10.2965 C.ar    1  UNL1        0.0130
      8 C          63.0485   85.5499   11.5877 C.ar    1  UNL1        0.0196
      9 C          63.0012   86.9537   12.1143 C.ar    1  UNL1        0.0787
     10 N          63.5765   87.5824   13.3488 N.ar    1  UNL1       -0.3131
     11 C          63.5686   90.0415   14.3968 C.3     1  UNL1        0.1908
     12 C          66.7264   92.2951   14.5171 C.ar    1  UNL1        0.2069
     13 N          65.7808   91.3290   15.1670 N.ar    1  UNL1       -0.1501
     14 N          64.7182   90.9775   14.1684 N.ar    1  UNL1       -0.2404
     15 C          65.0071   91.7264   12.9012 C.ar    1  UNL1        0.1003
     16 C          64.3003   91.7720   11.5790 C.ar    1  UNL1        0.1176
     17 N          64.8346   92.6320   10.4722 N.ar    1  UNL1       -0.2408
     18 C          66.0758   93.4463   10.6877 C.ar    1  UNL1        0.0991
     19 C          66.7825   93.4007   12.0100 C.ar    1  UNL1        0.0251
     20 C          66.2482   92.5408   13.1167 C.ar    1  UNL1        0.0572
     21 C          69.1488   93.5210   15.7936 C.3     1  UNL1        0.1835
     22 S          67.9375   92.9081   15.1554 S.O2    1  UNL1        0.0285
     23 O          67.0911   93.3950   16.2939 O.2     1  UNL1       -0.1671
     24 O          68.7840   92.4211   14.0168 O.2     1  UNL1       -0.1671
     25 C          64.3849   86.8819   14.4002 C.3     1  UNL1        0.1122
     26 C          64.0912   85.4513   14.7430 C.3     1  UNL1        0.0818
     27 C          64.7751   84.1394   14.4954 C.3     1  UNL1        0.1465
     28 O          63.6759   83.4284   15.2277 O.3     1  UNL1       -0.3535
     29 C          62.9920   84.7403   15.4753 C.3     1  UNL1        0.1465
@<TRIPOS>BOND
     1    21    22    1
     2    22    23    2
     3    22    24    2
     4    22    12    1
     5    12    13   ar
     6    13    14   ar
     7    14    11    1
     8    11     1    1
     9     1     2   ar
    10     2     3   ar
    11     3     4   ar
    12     4     5   ar
    13     5     6    1
    14     5     7   ar
    15     7     8   ar
    16     8     9   ar
    17     9    10   ar
    18    10    25    1
    19    25    26    1
    20    26    27    1
    21    27    28    1
    22    28    29    1
    23    14    15   ar
    24    15    16   ar
    25    16    17   ar
    26    17    18   ar
    27    18    19   ar
    28    19    20   ar
    29    20    12   ar
    30    10     1   ar
    31    29    26    1
    32    20    15   ar
    33     9     3   ar
