@<TRIPOS>MOLECULE
*****
 35 37 0 0 0
SMALL
GASTEIGER

@<TRIPOS>ATOM
      1 C          63.6503   90.6028   12.2550 C.2     1  UNL1        0.2271
      2 O          63.2355   90.6717   10.8152 O.2     1  UNL1       -0.2748
      3 N          63.7409   89.2748   12.9467 N.am    1  UNL1       -0.2760
      4 C          63.4167   88.0159   12.1985 C.3     1  UNL1        0.1149
      5 C          63.5073   86.6880   12.8901 C.3     1  UNL1        0.1152
      6 N          63.9221   86.6190   14.3300 N.am    1  UNL1       -0.2726
      7 C          64.0127   85.2910   15.0216 C.2     1  UNL1        0.2491
      8 O          64.4275   85.2221   16.4615 O.2     1  UNL1       -0.2699
      9 C          64.2463   87.8780   15.0782 C.3     1  UNL1        0.1152
     10 C          64.1557   89.2059   14.3865 C.3     1  UNL1        0.1149
     11 C          63.6884   84.0321   14.2734 C.ar    1  UNL1        0.0536
     12 C          64.5945   83.5570   13.1764 C.ar    1  UNL1        0.0045
     13 C          64.2702   82.2980   12.4282 C.ar    1  UNL1        0.0040
     14 C          63.0399   81.5141   12.7770 C.ar    1  UNL1        0.0714
     15 C          62.1338   81.9891   13.8740 C.ar    1  UNL1        0.0040
     16 C          62.4581   83.2480   14.6222 C.ar    1  UNL1        0.0045
     17 C          62.7157   80.2551   12.0288 C.3     1  UNL1        0.4186
     18 F          62.3914   78.9961   11.2806 F       1  UNL1       -0.1659
     19 F          62.3247   79.5910   13.3157 F       1  UNL1       -0.1659
     20 F          63.1066   80.9192   10.7420 F       1  UNL1       -0.1659
     21 C          63.9746   91.8618   13.0032 C.3     1  UNL1        0.1010
     22 N          65.7866   92.8377   14.5889 N.3     1  UNL1       -0.3215
     23 C          65.4043   92.2266   13.2734 C.3     1  UNL1        0.0644
     24 H          64.9564   92.9323   15.1739 H       1  UNL1        0.1188
     25 H          66.1971   93.7578   14.4298 H       1  UNL1        0.1188
     26 C          66.4515   91.9803   12.2282 C.3     1  UNL1        0.0447
     27 C          66.7621   93.0403   11.2134 C.ar    1  UNL1        0.0090
     28 C          66.1900   94.4182   11.3689 C.ar    1  UNL1        0.0300
     29 C          66.5006   95.4782   10.3541 C.ar    1  UNL1        0.1672
     30 F          65.9285   96.8560   10.5097 F       1  UNL1       -0.2018
     31 C          67.3832   95.1603    9.1836 C.ar    1  UNL1        0.1696
     32 F          67.6937   96.2202    8.1687 F       1  UNL1       -0.2017
     33 C          67.9552   93.7824    9.0280 C.ar    1  UNL1        0.0612
     34 C          67.6447   92.7224   10.0429 C.ar    1  UNL1        0.1386
     35 F          68.2167   91.3445    9.8873 F       1  UNL1       -0.2044
@<TRIPOS>BOND
     1    23    22    1
     2    23    21    1
     3    21     1    1
     4     1     2    2
     5     1     3   am
     6     3     4    1
     7     4     5    1
     8     5     6    1
     9     6     7   am
    10     7     8    2
    11     7    11    1
    12    11    12   ar
    13    12    13   ar
    14    13    14   ar
    15    14    17    1
    16    17    18    1
    17    17    19    1
    18    17    20    1
    19    14    15   ar
    20    15    16   ar
    21     6     9    1
    22     9    10    1
    23    23    26    1
    24    26    27    1
    25    27    28   ar
    26    28    29   ar
    27    29    30    1
    28    29    31   ar
    29    31    32    1
    30    31    33   ar
    31    33    34   ar
    32    34    35    1
    33    10     3    1
    34    34    27   ar
    35    16    11   ar
    36    22    24    1
    37    22    25    1
@<TRIPOS>MOLECULE
*****
 35 37 0 0 0
SMALL
GASTEIGER

@<TRIPOS>ATOM
      1 C          63.7733   90.5169   12.6236 C.2     1  UNL1        0.2271
      2 O          63.4414   90.6610   11.1679 O.2     1  UNL1       -0.2748
      3 N          63.8066   89.1562   13.2541 N.am    1  UNL1       -0.2760
      4 C          63.5082   87.9397   12.4289 C.3     1  UNL1        0.1149
      5 C          63.5415   86.5791   13.0595 C.3     1  UNL1        0.1152
      6 N          63.8734   86.4350   14.5152 N.am    1  UNL1       -0.2726
      7 C          63.9067   85.0743   15.1457 C.2     1  UNL1        0.2491
      8 O          64.2386   84.9302   16.6014 O.2     1  UNL1       -0.2699
      9 C          64.1719   87.6515   15.3404 C.3     1  UNL1        0.1152
     10 C          64.1385   89.0121   14.7098 C.3     1  UNL1        0.1149
     11 C          63.6083   83.8578   14.3205 C.ar    1  UNL1        0.0536
     12 C          62.3765   83.0477   14.5971 C.ar    1  UNL1        0.0045
     13 C          62.0781   81.8311   13.7718 C.ar    1  UNL1        0.0040
     14 C          63.0113   81.4248   12.6700 C.ar    1  UNL1        0.0714
     15 C          64.2431   82.2349   12.3935 C.ar    1  UNL1        0.0040
     16 C          64.5415   83.4514   13.2187 C.ar    1  UNL1        0.0045
     17 C          62.7129   80.2083   11.8449 C.3     1  UNL1        0.4186
     18 F          62.4144   78.9917   11.0196 F       1  UNL1       -0.1659
     19 F          62.3141   79.4648   13.0851 F       1  UNL1       -0.1659
     20 F          63.1116   80.9517   10.6046 F       1  UNL1       -0.1659
     21 C          64.0718   91.7334   13.4488 C.3     1  UNL1        0.1010
     22 N          66.4597   91.2418   14.3467 N.3     1  UNL1       -0.3215
     23 C          65.4926   92.1634   13.6644 C.3     1  UNL1        0.0644
     24 H          65.9850   90.3736   14.5943 H       1  UNL1        0.1188
     25 H          66.8155   91.6879   15.1922 H       1  UNL1        0.1188
     26 C          65.9463   93.5147   13.1977 C.3     1  UNL1        0.0447
     27 C          66.4692   93.6898   11.8028 C.ar    1  UNL1        0.0090
     28 C          67.0726   92.5244   11.0761 C.ar    1  UNL1        0.0300
     29 C          67.5955   92.6995    9.6812 C.ar    1  UNL1        0.1672
     30 F          68.1988   91.5342    8.9547 F       1  UNL1       -0.2018
     31 C          67.5151   94.0400    9.0128 C.ar    1  UNL1        0.1696
     32 F          68.0380   94.2151    7.6179 F       1  UNL1       -0.2017
     33 C          66.9117   95.2053    9.7394 C.ar    1  UNL1        0.0612
     34 C          66.3888   95.0303   11.1344 C.ar    1  UNL1        0.1386
     35 F          65.7855   96.1956   11.8609 F       1  UNL1       -0.2044
@<TRIPOS>BOND
     1    23    22    1
     2    23    21    1
     3    21     1    1
     4     1     2    2
     5     1     3   am
     6     3     4    1
     7     4     5    1
     8     5     6    1
     9     6     7   am
    10     7     8    2
    11     7    11    1
    12    11    12   ar
    13    12    13   ar
    14    13    14   ar
    15    14    17    1
    16    17    18    1
    17    17    19    1
    18    17    20    1
    19    14    15   ar
    20    15    16   ar
    21     6     9    1
    22     9    10    1
    23    23    26    1
    24    26    27    1
    25    27    28   ar
    26    28    29   ar
    27    29    30    1
    28    29    31   ar
    29    31    32    1
    30    31    33   ar
    31    33    34   ar
    32    34    35    1
    33    10     3    1
    34    34    27   ar
    35    16    11   ar
    36    22    24    1
    37    22    25    1
@<TRIPOS>MOLECULE
*****
 35 37 0 0 0
SMALL
GASTEIGER

@<TRIPOS>ATOM
      1 C          60.6702   89.0798   11.2985 C.2     1  UNL1        0.2271
      2 O          60.2735   88.3910   12.5706 O.2     1  UNL1       -0.2748
      3 N          61.9084   89.9257   11.2584 N.am    1  UNL1       -0.2760
      4 C          62.7498   90.0827   12.4902 C.3     1  UNL1        0.1149
      5 C          63.9879   90.9285   12.4500 C.3     1  UNL1        0.1152
      6 N          64.3846   91.6173   11.1779 N.am    1  UNL1       -0.2726
      7 C          65.6228   92.4631   11.1377 C.2     1  UNL1        0.2491
      8 O          66.0196   93.1519    9.8657 O.2     1  UNL1       -0.2699
      9 C          63.5433   91.4603    9.9461 C.3     1  UNL1        0.1152
     10 C          62.3052   90.6145    9.9863 C.3     1  UNL1        0.1149
     11 C          66.4641   92.6201   12.3696 C.ar    1  UNL1        0.0536
     12 C          66.1303   93.6815   13.3756 C.ar    1  UNL1        0.0045
     13 C          66.9717   93.8385   14.6075 C.ar    1  UNL1        0.0040
     14 C          68.1469   92.9341   14.8333 C.ar    1  UNL1        0.0714
     15 C          68.4807   91.8728   13.8273 C.ar    1  UNL1        0.0040
     16 C          67.6394   91.7158   12.5954 C.ar    1  UNL1        0.0045
     17 C          68.9882   93.0911   16.0651 C.3     1  UNL1        0.4186
     18 F          69.8296   93.2482   17.2970 F       1  UNL1       -0.1659
     19 F          68.2192   91.9887   16.7309 F       1  UNL1       -0.1659
     20 F          69.7572   94.1936   15.3994 F       1  UNL1       -0.1659
     21 C          59.8289   88.9228   10.0667 C.3     1  UNL1        0.1010
     22 N          58.8949   87.0471    8.5306 N.3     1  UNL1       -0.3215
     23 C          60.0616   87.7648    9.1421 C.3     1  UNL1        0.0644
     24 H          58.0264   87.4761    8.8501 H       1  UNL1        0.1188
     25 H          58.9135   86.0668    8.8117 H       1  UNL1        0.1188
     26 C          61.4609   87.3244    8.8290 C.3     1  UNL1        0.0447
     27 C          62.0654   86.1665    9.5664 C.ar    1  UNL1        0.0090
     28 C          61.8095   85.9964   11.0347 C.ar    1  UNL1        0.0300
     29 C          62.4141   84.8385   11.7721 C.ar    1  UNL1        0.1672
     30 F          62.1582   84.6684   13.2402 F       1  UNL1       -0.2018
     31 C          63.2744   83.8507   11.0413 C.ar    1  UNL1        0.1696
     32 F          63.8790   82.6928   11.7787 F       1  UNL1       -0.2017
     33 C          63.5303   84.0208    9.5732 C.ar    1  UNL1        0.0612
     34 C          62.9258   85.1787    8.8357 C.ar    1  UNL1        0.1386
     35 F          63.1816   85.3488    7.3675 F       1  UNL1       -0.2044
@<TRIPOS>BOND
     1    23    22    1
     2    23    21    1
     3    21     1    1
     4     1     2    2
     5     1     3   am
     6     3     4    1
     7     4     5    1
     8     5     6    1
     9     6     7   am
    10     7     8    2
    11     7    11    1
    12    11    12   ar
    13    12    13   ar
    14    13    14   ar
    15    14    17    1
    16    17    18    1
    17    17    19    1
    18    17    20    1
    19    14    15   ar
    20    15    16   ar
    21     6     9    1
    22     9    10    1
    23    23    26    1
    24    26    27    1
    25    27    28   ar
    26    28    29   ar
    27    29    30    1
    28    29    31   ar
    29    31    32    1
    30    31    33   ar
    31    33    34   ar
    32    34    35    1
    33    10     3    1
    34    34    27   ar
    35    16    11   ar
    36    22    24    1
    37    22    25    1
@<TRIPOS>MOLECULE
*****
 35 37 0 0 0
SMALL
GASTEIGER

@<TRIPOS>ATOM
      1 C          64.7713   90.7188   14.3709 C.2     1  UNL1        0.2271
      2 O          65.5030   90.4747   15.6574 O.2     1  UNL1       -0.2748
      3 N          64.1519   89.5705   13.6308 N.am    1  UNL1       -0.2760
      4 C          64.2643   88.1781   14.1771 C.3     1  UNL1        0.1149
      5 C          63.6450   87.0298   13.4369 C.3     1  UNL1        0.1152
      6 N          62.9133   87.2739   12.1505 N.am    1  UNL1       -0.2726
      7 C          62.2939   86.1256   11.4103 C.2     1  UNL1        0.2491
      8 O          61.5622   86.3697   10.1238 O.2     1  UNL1       -0.2699
      9 C          62.8009   88.6663   11.6041 C.3     1  UNL1        0.1152
     10 C          63.4202   89.8146   12.3443 C.3     1  UNL1        0.1149
     11 C          62.4063   84.7332   11.9566 C.ar    1  UNL1        0.0536
     12 C          62.7767   83.5986   11.0480 C.ar    1  UNL1        0.0045
     13 C          62.8890   82.2061   11.5944 C.ar    1  UNL1        0.0040
     14 C          62.6310   81.9483   13.0493 C.ar    1  UNL1        0.0714
     15 C          62.2606   83.0828   13.9580 C.ar    1  UNL1        0.0040
     16 C          62.1483   84.4753   13.4116 C.ar    1  UNL1        0.0045
     17 C          62.7434   80.5559   13.5957 C.3     1  UNL1        0.4186
     18 F          62.8558   79.1634   14.1420 F       1  UNL1       -0.1659
     19 F          61.2505   80.4858   13.7242 F       1  UNL1       -0.1659
     20 F          64.2362   80.6259   13.4672 F       1  UNL1       -0.1659
     21 C          64.6589   92.1112   13.8246 C.3     1  UNL1        0.1010
     22 N          66.3662   94.0299   14.2169 N.3     1  UNL1       -0.3215
     23 C          65.8933   92.8565   13.4110 C.3     1  UNL1        0.0644
     24 H          65.7347   94.1785   15.0040 H       1  UNL1        0.1188
     25 H          66.3786   94.8634   13.6289 H       1  UNL1        0.1188
     26 C          66.6546   92.4284   12.1916 C.3     1  UNL1        0.0447
     27 C          66.7735   93.3550   11.0180 C.ar    1  UNL1        0.0090
     28 C          66.0020   94.6412   10.9968 C.ar    1  UNL1        0.0300
     29 C          66.1209   95.5678    9.8232 C.ar    1  UNL1        0.1672
     30 F          65.3495   96.8540    9.8020 F       1  UNL1       -0.2018
     31 C          67.0113   95.2082    8.6708 C.ar    1  UNL1        0.1696
     32 F          67.1301   96.1347    7.4973 F       1  UNL1       -0.2017
     33 C          67.7827   93.9220    8.6920 C.ar    1  UNL1        0.0612
     34 C          67.6638   92.9953    9.8657 C.ar    1  UNL1        0.1386
     35 F          68.4353   91.7091    9.8869 F       1  UNL1       -0.2044
@<TRIPOS>BOND
     1    23    22    1
     2    23    21    1
     3    21     1    1
     4     1     2    2
     5     1     3   am
     6     3     4    1
     7     4     5    1
     8     5     6    1
     9     6     7   am
    10     7     8    2
    11     7    11    1
    12    11    12   ar
    13    12    13   ar
    14    13    14   ar
    15    14    17    1
    16    17    18    1
    17    17    19    1
    18    17    20    1
    19    14    15   ar
    20    15    16   ar
    21     6     9    1
    22     9    10    1
    23    23    26    1
    24    26    27    1
    25    27    28   ar
    26    28    29   ar
    27    29    30    1
    28    29    31   ar
    29    31    32    1
    30    31    33   ar
    31    33    34   ar
    32    34    35    1
    33    10     3    1
    34    34    27   ar
    35    16    11   ar
    36    22    24    1
    37    22    25    1
@<TRIPOS>MOLECULE
*****
 35 37 0 0 0
SMALL
GASTEIGER

@<TRIPOS>ATOM
      1 C          60.4117   89.8398   11.5426 C.2     1  UNL1        0.2271
      2 O          59.9399   89.2674   12.8463 O.2     1  UNL1       -0.2748
      3 N          61.7467   90.5188   11.4609 N.am    1  UNL1       -0.2760
      4 C          62.6100   90.6253   12.6830 C.3     1  UNL1        0.1149
      5 C          63.9450   91.3043   12.6013 C.3     1  UNL1        0.1152
      6 N          64.4168   91.8767   11.2975 N.am    1  UNL1       -0.2726
      7 C          65.7518   92.5557   11.2159 C.2     1  UNL1        0.2491
      8 O          66.2236   93.1282    9.9121 O.2     1  UNL1       -0.2699
      9 C          63.5535   91.7702   10.0755 C.3     1  UNL1        0.1152
     10 C          62.2185   91.0913   10.1572 C.3     1  UNL1        0.1149
     11 C          66.6151   92.6622   12.4379 C.ar    1  UNL1        0.0536
     12 C          66.3521   93.7371   13.4506 C.ar    1  UNL1        0.0045
     13 C          67.2154   93.8436   14.6727 C.ar    1  UNL1        0.0040
     14 C          68.3416   92.8752   14.8820 C.ar    1  UNL1        0.0714
     15 C          68.6046   91.8004   13.8693 C.ar    1  UNL1        0.0040
     16 C          67.7414   91.6939   12.6473 C.ar    1  UNL1        0.0045
     17 C          69.2049   92.9817   16.1041 C.3     1  UNL1        0.4186
     18 F          70.0682   93.0883   17.3262 F       1  UNL1       -0.1659
     19 F          69.2367   91.4860   16.2119 F       1  UNL1       -0.1659
     20 F          69.1730   94.4775   15.9962 F       1  UNL1       -0.1659
     21 C          59.5484   89.7333   10.3206 C.3     1  UNL1        0.1010
     22 N          60.4955   89.3169    7.9373 N.3     1  UNL1       -0.3215
     23 C          59.9223   88.7871    9.2183 C.3     1  UNL1        0.0644
     24 H          60.5608   90.3335    7.9888 H       1  UNL1        0.1188
     25 H          59.8901   89.0540    7.1596 H       1  UNL1        0.1188
     26 C          59.7231   87.3112    9.3970 C.3     1  UNL1        0.0447
     27 C          60.9049   86.3876    9.3819 C.ar    1  UNL1        0.0090
     28 C          61.4751   85.9204    8.0755 C.ar    1  UNL1        0.0300
     29 C          62.6569   84.9969    8.0604 C.ar    1  UNL1        0.1672
     30 F          63.2271   84.5297    6.7541 F       1  UNL1       -0.2018
     31 C          63.2686   84.5405    9.3518 C.ar    1  UNL1        0.1696
     32 F          64.4505   83.6169    9.3367 F       1  UNL1       -0.2017
     33 C          62.6985   85.0076   10.6581 C.ar    1  UNL1        0.0612
     34 C          61.5166   85.9312   10.6732 C.ar    1  UNL1        0.1386
     35 F          60.9465   86.3984   11.9796 F       1  UNL1       -0.2044
@<TRIPOS>BOND
     1    23    22    1
     2    23    21    1
     3    21     1    1
     4     1     2    2
     5     1     3   am
     6     3     4    1
     7     4     5    1
     8     5     6    1
     9     6     7   am
    10     7     8    2
    11     7    11    1
    12    11    12   ar
    13    12    13   ar
    14    13    14   ar
    15    14    17    1
    16    17    18    1
    17    17    19    1
    18    17    20    1
    19    14    15   ar
    20    15    16   ar
    21     6     9    1
    22     9    10    1
    23    23    26    1
    24    26    27    1
    25    27    28   ar
    26    28    29   ar
    27    29    30    1
    28    29    31   ar
    29    31    32    1
    30    31    33   ar
    31    33    34   ar
    32    34    35    1
    33    10     3    1
    34    34    27   ar
    35    16    11   ar
    36    22    24    1
    37    22    25    1
@<TRIPOS>MOLECULE
*****
 35 37 0 0 0
SMALL
GASTEIGER

@<TRIPOS>ATOM
      1 C          61.0027   89.6275    9.4037 C.2     1  UNL1        0.2271
      2 O          61.6856   90.2956    8.2474 O.2     1  UNL1       -0.2748
      3 N          61.5687   89.7587   10.7867 N.am    1  UNL1       -0.2760
      4 C          62.8176   90.5579   11.0132 C.3     1  UNL1        0.1149
      5 C          63.3836   90.6890   12.3961 C.3     1  UNL1        0.1152
      6 N          62.7006   90.0209   13.5525 N.am    1  UNL1       -0.2726
      7 C          63.2667   90.1520   14.9354 C.2     1  UNL1        0.2491
      8 O          62.5837   89.4839   16.0918 O.2     1  UNL1       -0.2699
      9 C          61.4517   89.2216   13.3259 C.3     1  UNL1        0.1152
     10 C          60.8858   89.0905   11.9431 C.3     1  UNL1        0.1149
     11 C          64.5156   90.9513   15.1619 C.ar    1  UNL1        0.0536
     12 C          65.7030   90.7574   14.2661 C.ar    1  UNL1        0.0045
     13 C          66.9519   91.5568   14.4927 C.ar    1  UNL1        0.0040
     14 C          67.0135   92.5499   15.6150 C.ar    1  UNL1        0.0714
     15 C          65.8261   92.7438   16.5109 C.ar    1  UNL1        0.0040
     16 C          64.5772   91.9445   16.2844 C.ar    1  UNL1        0.0045
     17 C          68.2624   93.3492   15.8416 C.3     1  UNL1        0.4186
     18 F          69.5113   94.1485   16.0681 F       1  UNL1       -0.1659
     19 F          68.8143   92.2452   16.6939 F       1  UNL1       -0.1659
     20 F          67.7104   94.4532   14.9893 F       1  UNL1       -0.1659
     21 C          59.7537   88.8282    9.1772 C.3     1  UNL1        0.1010
     22 N          58.5832   86.6905    8.2771 N.3     1  UNL1       -0.3215
     23 C          59.8353   87.4756    8.5338 C.3     1  UNL1        0.0644
     24 H          57.7756   87.2233    8.6002 H       1  UNL1        0.1188
     25 H          58.6287   85.8040    8.7795 H       1  UNL1        0.1188
     26 C          61.1688   86.9081    8.1472 C.3     1  UNL1        0.0447
     27 C          61.8765   85.9604    9.0696 C.ar    1  UNL1        0.0090
     28 C          61.5969   85.9985   10.5429 C.ar    1  UNL1        0.0300
     29 C          62.3046   85.0507   11.4653 C.ar    1  UNL1        0.1672
     30 F          62.0249   85.0889   12.9385 F       1  UNL1       -0.2018
     31 C          63.2919   84.0649   10.9146 C.ar    1  UNL1        0.1696
     32 F          63.9995   83.1171   11.8370 F       1  UNL1       -0.2017
     33 C          63.5715   84.0267    9.4414 C.ar    1  UNL1        0.0612
     34 C          62.8638   84.9745    8.5189 C.ar    1  UNL1        0.1386
     35 F          63.1434   84.9364    7.0457 F       1  UNL1       -0.2044
@<TRIPOS>BOND
     1    23    22    1
     2    23    21    1
     3    21     1    1
     4     1     2    2
     5     1     3   am
     6     3     4    1
     7     4     5    1
     8     5     6    1
     9     6     7   am
    10     7     8    2
    11     7    11    1
    12    11    12   ar
    13    12    13   ar
    14    13    14   ar
    15    14    17    1
    16    17    18    1
    17    17    19    1
    18    17    20    1
    19    14    15   ar
    20    15    16   ar
    21     6     9    1
    22     9    10    1
    23    23    26    1
    24    26    27    1
    25    27    28   ar
    26    28    29   ar
    27    29    30    1
    28    29    31   ar
    29    31    32    1
    30    31    33   ar
    31    33    34   ar
    32    34    35    1
    33    10     3    1
    34    34    27   ar
    35    16    11   ar
    36    22    24    1
    37    22    25    1
@<TRIPOS>MOLECULE
*****
 35 37 0 0 0
SMALL
GASTEIGER

@<TRIPOS>ATOM
      1 C          61.3824   90.2024    9.7866 C.2     1  UNL1        0.2271
      2 O          61.9911   90.8082    8.5568 O.2     1  UNL1       -0.2748
      3 N          62.0799   90.3284   11.1087 N.am    1  UNL1       -0.2760
      4 C          63.3859   91.0603   11.2009 C.3     1  UNL1        0.1149
      5 C          64.0833   91.1863   12.5229 C.3     1  UNL1        0.1152
      6 N          63.4746   90.5804   13.7527 N.am    1  UNL1       -0.2726
      7 C          64.1720   90.7064   15.0747 C.2     1  UNL1        0.2491
      8 O          63.5634   90.1006   16.3046 O.2     1  UNL1       -0.2699
      9 C          62.1685   89.8485   13.6605 C.3     1  UNL1        0.1152
     10 C          61.4712   89.7225   12.3385 C.3     1  UNL1        0.1149
     11 C          65.4781   91.4383   15.1669 C.ar    1  UNL1        0.0536
     12 C          66.5498   91.1915   14.1468 C.ar    1  UNL1        0.0045
     13 C          67.8559   91.9234   14.2391 C.ar    1  UNL1        0.0040
     14 C          68.0903   92.9021   15.3514 C.ar    1  UNL1        0.0714
     15 C          67.0186   93.1489   16.3715 C.ar    1  UNL1        0.0040
     16 C          65.7125   92.4170   16.2793 C.ar    1  UNL1        0.0045
     17 C          69.3963   93.6339   15.4436 C.3     1  UNL1        0.4186
     18 F          70.7024   94.3659   15.5358 F       1  UNL1       -0.1659
     19 F          70.0374   92.6006   14.5655 F       1  UNL1       -0.1659
     20 F          68.7553   94.6673   16.3217 F       1  UNL1       -0.1659
     21 C          60.0764   89.4705    9.6944 C.3     1  UNL1        0.1010
     22 N          59.5552   89.4256    7.1495 N.3     1  UNL1       -0.3215
     23 C          59.7326   88.7032    8.4521 C.3     1  UNL1        0.0644
     24 H          59.7038   90.4246    7.2918 H       1  UNL1        0.1188
     25 H          58.6099   89.2689    6.7998 H       1  UNL1        0.1188
     26 C          59.5662   87.2138    8.5125 C.3     1  UNL1        0.0447
     27 C          60.7638   86.3328    8.7115 C.ar    1  UNL1        0.0090
     28 C          61.4498   85.7206    7.5263 C.ar    1  UNL1        0.0300
     29 C          62.6474   84.8396    7.7254 C.ar    1  UNL1        0.1672
     30 F          63.3334   84.2275    6.5402 F       1  UNL1       -0.2018
     31 C          63.1591   84.5709    9.1096 C.ar    1  UNL1        0.1696
     32 F          64.3566   83.6900    9.3086 F       1  UNL1       -0.2017
     33 C          62.4731   85.1831   10.2947 C.ar    1  UNL1        0.0612
     34 C          61.2754   86.0641   10.0957 C.ar    1  UNL1        0.1386
     35 F          60.5894   86.6763   11.2809 F       1  UNL1       -0.2044
@<TRIPOS>BOND
     1    23    22    1
     2    23    21    1
     3    21     1    1
     4     1     2    2
     5     1     3   am
     6     3     4    1
     7     4     5    1
     8     5     6    1
     9     6     7   am
    10     7     8    2
    11     7    11    1
    12    11    12   ar
    13    12    13   ar
    14    13    14   ar
    15    14    17    1
    16    17    18    1
    17    17    19    1
    18    17    20    1
    19    14    15   ar
    20    15    16   ar
    21     6     9    1
    22     9    10    1
    23    23    26    1
    24    26    27    1
    25    27    28   ar
    26    28    29   ar
    27    29    30    1
    28    29    31   ar
    29    31    32    1
    30    31    33   ar
    31    33    34   ar
    32    34    35    1
    33    10     3    1
    34    34    27   ar
    35    16    11   ar
    36    22    24    1
    37    22    25    1
@<TRIPOS>MOLECULE
*****
 35 37 0 0 0
SMALL
GASTEIGER

@<TRIPOS>ATOM
      1 C          63.5101   87.9714   13.6280 C.2     1  UNL1        0.2271
      2 O          62.8487   87.3658   12.4256 O.2     1  UNL1       -0.2748
      3 N          64.2073   89.2947   13.5136 N.am    1  UNL1       -0.2760
      4 C          64.2431   90.0122   12.1969 C.3     1  UNL1        0.1149
      5 C          64.9404   91.3353   12.0826 C.3     1  UNL1        0.1152
      6 N          65.6018   91.9409   13.2850 N.am    1  UNL1       -0.2726
      7 C          66.2990   93.2642   13.1706 C.2     1  UNL1        0.2491
      8 O          66.9604   93.8698   14.3730 O.2     1  UNL1       -0.2699
      9 C          65.5660   91.2234   14.6017 C.3     1  UNL1        0.1152
     10 C          64.8687   89.9003   14.7160 C.3     1  UNL1        0.1149
     11 C          66.3348   93.9817   11.8538 C.ar    1  UNL1        0.0536
     12 C          65.8936   95.4127   11.7673 C.ar    1  UNL1        0.0045
     13 C          65.9294   96.1302   10.4504 C.ar    1  UNL1        0.0040
     14 C          66.4065   95.4167    9.2203 C.ar    1  UNL1        0.0714
     15 C          66.8478   93.9857    9.3069 C.ar    1  UNL1        0.0040
     16 C          66.8119   93.2682   10.6236 C.ar    1  UNL1        0.0045
     17 C          66.4423   96.1343    7.9036 C.3     1  UNL1        0.4186
     18 F          66.4781   96.8518    6.5868 F       1  UNL1       -0.1659
     19 F          67.9290   95.9450    7.8409 F       1  UNL1       -0.1659
     20 F          64.9557   96.3235    7.9663 F       1  UNL1       -0.1659
     21 C          63.4743   87.2539   14.9447 C.3     1  UNL1        0.1010
     22 N          65.5376   85.6986   15.2162 N.3     1  UNL1       -0.3215
     23 C          64.0560   85.8764   15.0643 C.3     1  UNL1        0.0644
     24 H          65.9913   86.6122   15.2183 H       1  UNL1        0.1188
     25 H          65.8949   85.1434   14.4387 H       1  UNL1        0.1188
     26 C          63.1560   84.6768   15.0321 C.3     1  UNL1        0.0447
     27 C          63.1766   83.7555   13.8486 C.ar    1  UNL1        0.0090
     28 C          64.0842   84.0435   12.6895 C.ar    1  UNL1        0.0300
     29 C          64.1047   83.1222   11.5060 C.ar    1  UNL1        0.1672
     30 F          65.0123   83.4102   10.3470 F       1  UNL1       -0.2018
     31 C          63.2177   81.9128   11.4816 C.ar    1  UNL1        0.1696
     32 F          63.2382   80.9915   10.2981 F       1  UNL1       -0.2017
     33 C          62.3101   81.6248   12.6405 C.ar    1  UNL1        0.0612
     34 C          62.2895   82.5461   13.8241 C.ar    1  UNL1        0.1386
     35 F          61.3820   82.2581   14.9831 F       1  UNL1       -0.2044
@<TRIPOS>BOND
     1    23    22    1
     2    23    21    1
     3    21     1    1
     4     1     2    2
     5     1     3   am
     6     3     4    1
     7     4     5    1
     8     5     6    1
     9     6     7   am
    10     7     8    2
    11     7    11    1
    12    11    12   ar
    13    12    13   ar
    14    13    14   ar
    15    14    17    1
    16    17    18    1
    17    17    19    1
    18    17    20    1
    19    14    15   ar
    20    15    16   ar
    21     6     9    1
    22     9    10    1
    23    23    26    1
    24    26    27    1
    25    27    28   ar
    26    28    29   ar
    27    29    30    1
    28    29    31   ar
    29    31    32    1
    30    31    33   ar
    31    33    34   ar
    32    34    35    1
    33    10     3    1
    34    34    27   ar
    35    16    11   ar
    36    22    24    1
    37    22    25    1
@<TRIPOS>MOLECULE
*****
 35 37 0 0 0
SMALL
GASTEIGER

@<TRIPOS>ATOM
      1 C          63.0555   90.2698   11.3391 C.2     1  UNL1        0.2271
      2 O          62.4213   90.1321    9.9868 O.2     1  UNL1       -0.2748
      3 N          63.3102   89.0510   12.1757 N.am    1  UNL1       -0.2760
      4 C          62.9305   87.6946   11.6599 C.3     1  UNL1        0.1149
      5 C          63.1851   86.4759   12.4965 C.3     1  UNL1        0.1152
      6 N          63.8194   86.6136   13.8488 N.am    1  UNL1       -0.2726
      7 C          64.0740   85.3948   14.6854 C.2     1  UNL1        0.2491
      8 O          64.7083   85.5324   16.0377 O.2     1  UNL1       -0.2699
      9 C          64.1991   87.9699   14.3646 C.3     1  UNL1        0.1152
     10 C          63.9444   89.1886   13.5280 C.3     1  UNL1        0.1149
     11 C          63.6944   84.0384   14.1696 C.ar    1  UNL1        0.0536
     12 C          64.5448   83.3649   13.1336 C.ar    1  UNL1        0.0045
     13 C          64.1650   82.0084   12.6179 C.ar    1  UNL1        0.0040
     14 C          62.9350   81.3255   13.1381 C.ar    1  UNL1        0.0714
     15 C          62.0846   81.9991   14.1741 C.ar    1  UNL1        0.0040
     16 C          62.4643   83.3554   14.6898 C.ar    1  UNL1        0.0045
     17 C          62.5554   79.9692   12.6224 C.3     1  UNL1        0.4186
     18 F          62.1757   78.6127   12.1066 F       1  UNL1       -0.1659
     19 F          62.6226   80.4853   11.2156 F       1  UNL1       -0.1659
     20 F          62.4881   79.4531   14.0291 F       1  UNL1       -0.1659
     21 C          63.4352   91.6261   11.8549 C.3     1  UNL1        0.1010
     22 N          64.5186   93.4483   10.3528 N.3     1  UNL1       -0.3215
     23 C          64.6581   92.3147   11.3252 C.3     1  UNL1        0.0644
     24 H          63.5300   93.6151   10.1647 H       1  UNL1        0.1188
     25 H          64.9949   93.2106    9.4828 H       1  UNL1        0.1188
     26 C          66.0204   91.8697   11.7678 C.3     1  UNL1        0.0447
     27 C          66.6342   92.4526   13.0061 C.ar    1  UNL1        0.0090
     28 C          67.2772   91.5528   14.0195 C.ar    1  UNL1        0.0300
     29 C          67.8910   92.1358   15.2578 C.ar    1  UNL1        0.1672
     30 F          68.5339   91.2360   16.2712 F       1  UNL1       -0.2018
     31 C          67.8620   93.6185   15.4826 C.ar    1  UNL1        0.1696
     32 F          68.4758   94.2015   16.7209 F       1  UNL1       -0.2017
     33 C          67.2191   94.5183   14.4692 C.ar    1  UNL1        0.0612
     34 C          66.6052   93.9354   13.2309 C.ar    1  UNL1        0.1386
     35 F          65.9623   94.8352   12.2175 F       1  UNL1       -0.2044
@<TRIPOS>BOND
     1    23    22    1
     2    23    21    1
     3    21     1    1
     4     1     2    2
     5     1     3   am
     6     3     4    1
     7     4     5    1
     8     5     6    1
     9     6     7   am
    10     7     8    2
    11     7    11    1
    12    11    12   ar
    13    12    13   ar
    14    13    14   ar
    15    14    17    1
    16    17    18    1
    17    17    19    1
    18    17    20    1
    19    14    15   ar
    20    15    16   ar
    21     6     9    1
    22     9    10    1
    23    23    26    1
    24    26    27    1
    25    27    28   ar
    26    28    29   ar
    27    29    30    1
    28    29    31   ar
    29    31    32    1
    30    31    33   ar
    31    33    34   ar
    32    34    35    1
    33    10     3    1
    34    34    27   ar
    35    16    11   ar
    36    22    24    1
    37    22    25    1
