@<TRIPOS>MOLECULE
*****
 28 29 0 0 0
SMALL
GASTEIGER

@<TRIPOS>ATOM
      1 C          63.6417   90.7751   12.0014 C.ar    1  UNL1        0.0191
      2 C          63.0604   90.7553   10.6189 C.ar    1  UNL1        0.0063
      3 C          62.4404   89.4985   10.0839 C.ar    1  UNL1        0.0581
      4 C          62.4018   88.2616   10.9315 C.ar    1  UNL1        0.2297
      5 N          62.9832   88.2814   12.3141 N.ar    1  UNL1       -0.2098
      6 C          63.6031   89.5382   12.8490 C.ar    1  UNL1        0.1020
      7 C          65.5200   92.5682   11.9210 C.2     1  UNL1       -0.0069
      8 C          64.2617   92.0319   12.5364 C.2     1  UNL1       -0.0014
      9 C          66.1400   93.8250   12.4560 C.3     1  UNL1        0.0939
     10 C          66.4062   94.9801   11.5368 C.3     1  UNL1        0.0262
     11 C          67.9533   93.1860   15.9278 C.3     1  UNL1        0.0946
     12 C          67.5995   93.0843   14.4737 C.2     1  UNL1        0.2232
     13 O          68.3516   92.1403   13.5832 O.2     1  UNL1       -0.2751
     14 N          66.4937   93.9267   13.9101 N.am    1  UNL1       -0.3022
     15 H          66.0001   94.5463   14.4947 H       1  UNL1        0.1497
     16 O          61.7819   87.0048   10.3965 O.3     1  UNL1       -0.4352
     17 C          62.3357   85.6681   10.7920 C.ar    1  UNL1        0.1578
     18 C          62.1858   85.1819   12.2031 C.ar    1  UNL1        0.0415
     19 C          62.7395   83.8452   12.5987 C.ar    1  UNL1        0.0401
     20 C          63.4433   82.9946   11.5831 C.ar    1  UNL1        0.1399
     21 C          63.5932   83.4808   10.1721 C.ar    1  UNL1        0.0514
     22 C          63.0394   84.8175    9.7765 C.ar    1  UNL1        0.0952
     23 CL         63.1893   85.3037    8.3654 Cl      1  UNL1       -0.0790
     24 O          63.9971   81.6578   11.9787 O.3     1  UNL1       -0.4693
     25 C          63.7592   81.1269   13.3613 C.3     1  UNL1        0.2772
     26 C          62.4245   80.5453   13.7220 C.3     1  UNL1        0.3615
     27 F          62.0764   79.1484   13.3005 F       1  UNL1       -0.1942
     28 F          61.4378   81.3606   14.5041 F       1  UNL1       -0.1942
@<TRIPOS>BOND
     1    11    12    1
     2    12    13    2
     3    12    14   am
     4    14     9    1
     5     9    10    1
     6     9     7    1
     7     7     8    2
     8     8     1    1
     9     1     2   ar
    10     2     3   ar
    11     3     4   ar
    12     4    16    1
    13    16    17    1
    14    17    18   ar
    15    18    19   ar
    16    19    20   ar
    17    20    24    1
    18    24    25    1
    19    25    26    1
    20    26    27    1
    21    26    28    1
    22    20    21   ar
    23    21    22   ar
    24    22    23    1
    25     4     5   ar
    26     5     6   ar
    27     6     1   ar
    28    22    17   ar
    29    14    15    1
@<TRIPOS>MOLECULE
*****
 28 29 0 0 0
SMALL
GASTEIGER

@<TRIPOS>ATOM
      1 C          63.6925   86.4009   13.3294 C.ar    1  UNL1        0.0191
      2 C          64.3584   86.9830   14.5408 C.ar    1  UNL1        0.0063
      3 C          64.3802   88.4691   14.7434 C.ar    1  UNL1        0.0581
      4 C          63.7361   89.3731   13.7345 C.ar    1  UNL1        0.2297
      5 N          63.0702   88.7910   12.5231 N.ar    1  UNL1       -0.2098
      6 C          63.0484   87.3049   12.3205 C.ar    1  UNL1        0.1020
      7 C          63.2233   84.3433   11.8141 C.2     1  UNL1       -0.0069
      8 C          63.6707   84.9148   13.1268 C.2     1  UNL1       -0.0014
      9 C          63.2015   82.8572   11.6116 C.3     1  UNL1        0.0939
     10 C          64.3059   82.1881   10.8482 C.3     1  UNL1        0.0262
     11 C          61.0442   80.6702   14.1240 C.3     1  UNL1        0.0946
     12 C          62.1703   81.4871   13.5633 C.2     1  UNL1        0.2232
     13 O          63.3913   81.7509   14.3937 O.2     1  UNL1       -0.2751
     14 N          62.0754   82.0403   12.1723 N.am    1  UNL1       -0.3022
     15 H          61.2740   81.8672   11.6273 H       1  UNL1        0.1497
     16 O          63.7579   90.8592   13.9371 O.3     1  UNL1       -0.4352
     17 C          64.6377   91.7202   13.0800 C.ar    1  UNL1        0.1578
     18 C          64.3944   91.8044   11.6022 C.ar    1  UNL1        0.0415
     19 C          65.2742   92.6653   10.7451 C.ar    1  UNL1        0.0401
     20 C          66.3973   93.4421   11.3657 C.ar    1  UNL1        0.1399
     21 C          66.6407   93.3579   12.8434 C.ar    1  UNL1        0.0514
     22 C          65.7609   92.4969   13.7006 C.ar    1  UNL1        0.0952
     23 CL         66.0042   92.4128   15.1783 Cl      1  UNL1       -0.0790
     24 O          67.2772   94.3031   10.5086 O.3     1  UNL1       -0.4693
     25 C          67.8625   93.7512    9.2426 C.3     1  UNL1        0.2772
     26 C          68.6005   92.4456    9.2644 C.3     1  UNL1        0.3615
     27 F          68.6007   91.6048   10.5067 F       1  UNL1       -0.1942
     28 F          69.3384   91.9806    8.0440 F       1  UNL1       -0.1942
@<TRIPOS>BOND
     1    11    12    1
     2    12    13    2
     3    12    14   am
     4    14     9    1
     5     9    10    1
     6     9     7    1
     7     7     8    2
     8     8     1    1
     9     1     2   ar
    10     2     3   ar
    11     3     4   ar
    12     4    16    1
    13    16    17    1
    14    17    18   ar
    15    18    19   ar
    16    19    20   ar
    17    20    24    1
    18    24    25    1
    19    25    26    1
    20    26    27    1
    21    26    28    1
    22    20    21   ar
    23    21    22   ar
    24    22    23    1
    25     4     5   ar
    26     5     6   ar
    27     6     1   ar
    28    22    17   ar
    29    14    15    1
@<TRIPOS>MOLECULE
*****
 28 29 0 0 0
SMALL
GASTEIGER

@<TRIPOS>ATOM
      1 C          63.5344   90.8351   11.6410 C.ar    1  UNL1        0.0191
      2 C          62.8837   90.6322   10.3048 C.ar    1  UNL1        0.0063
      3 C          62.2760   89.3048    9.9603 C.ar    1  UNL1        0.0581
      4 C          62.3191   88.1802   10.9520 C.ar    1  UNL1        0.2297
      5 N          62.9698   88.3831   12.2881 N.ar    1  UNL1       -0.2098
      6 C          63.5774   89.7105   12.6326 C.ar    1  UNL1        0.1020
      7 C          65.4171   92.5974   11.3261 C.2     1  UNL1       -0.0069
      8 C          64.1420   92.1625   11.9855 C.2     1  UNL1       -0.0014
      9 C          66.0248   93.9249   11.6706 C.3     1  UNL1        0.0939
     10 C          66.4812   94.1995   13.0729 C.3     1  UNL1        0.0262
     11 C          67.4949   95.9866    8.6148 C.3     1  UNL1        0.0946
     12 C          67.3437   94.9338    9.6725 C.2     1  UNL1        0.2232
     13 O          68.3603   93.8371    9.7897 O.2     1  UNL1       -0.2751
     14 N          66.1760   94.9777   10.6129 N.am    1  UNL1       -0.3022
     15 H          65.5087   95.6975   10.5359 H       1  UNL1        0.1497
     16 O          61.7115   86.8528   10.6074 O.3     1  UNL1       -0.4352
     17 C          62.3725   85.5850   11.0609 C.ar    1  UNL1        0.1578
     18 C          62.3073   85.1796   12.5037 C.ar    1  UNL1        0.0415
     19 C          62.9683   83.9119   12.9572 C.ar    1  UNL1        0.0401
     20 C          63.6946   83.0493   11.9680 C.ar    1  UNL1        0.1399
     21 C          63.7598   83.4546   10.5253 C.ar    1  UNL1        0.0514
     22 C          63.0988   84.7224   10.0717 C.ar    1  UNL1        0.0952
     23 CL         63.1640   85.1277    8.6290 Cl      1  UNL1       -0.0790
     24 O          64.3557   81.7815   12.4216 O.3     1  UNL1       -0.4693
     25 C          63.7651   80.9902   13.5507 C.3     1  UNL1        0.2772
     26 C          62.4387   80.3115   13.3777 C.3     1  UNL1        0.3615
     27 F          61.2647   80.7365   14.2091 F       1  UNL1       -0.1942
     28 F          62.2862   79.2079   12.3733 F       1  UNL1       -0.1942
@<TRIPOS>BOND
     1    11    12    1
     2    12    13    2
     3    12    14   am
     4    14     9    1
     5     9    10    1
     6     9     7    1
     7     7     8    2
     8     8     1    1
     9     1     2   ar
    10     2     3   ar
    11     3     4   ar
    12     4    16    1
    13    16    17    1
    14    17    18   ar
    15    18    19   ar
    16    19    20   ar
    17    20    24    1
    18    24    25    1
    19    25    26    1
    20    26    27    1
    21    26    28    1
    22    20    21   ar
    23    21    22   ar
    24    22    23    1
    25     4     5   ar
    26     5     6   ar
    27     6     1   ar
    28    22    17   ar
    29    14    15    1
@<TRIPOS>MOLECULE
*****
 28 29 0 0 0
SMALL
GASTEIGER

@<TRIPOS>ATOM
      1 C          64.6703   91.4279   12.5748 C.ar    1  UNL1        0.0191
      2 C          65.5536   91.3413   13.7840 C.ar    1  UNL1        0.0063
      3 C          65.2069   90.4012   14.9003 C.ar    1  UNL1        0.0581
      4 C          63.9770   89.5477   14.8073 C.ar    1  UNL1        0.2297
      5 N          63.0937   89.6342   13.5981 N.ar    1  UNL1       -0.2098
      6 C          63.4403   90.5743   12.4818 C.ar    1  UNL1        0.1020
      7 C          66.4510   92.5756   11.0710 C.2     1  UNL1       -0.0069
      8 C          65.0169   92.3679   11.4585 C.2     1  UNL1       -0.0014
      9 C          66.7977   93.5157    9.9547 C.3     1  UNL1        0.0939
     10 C          68.1095   93.3800    9.2400 C.3     1  UNL1        0.0262
     11 C          64.6528   96.8535   10.0438 C.3     1  UNL1        0.0946
     12 C          65.6179   95.7778   10.4455 C.2     1  UNL1        0.2232
     13 O          66.3684   95.8885   11.7395 O.2     1  UNL1       -0.2751
     14 N          65.8325   94.5914    9.5531 N.am    1  UNL1       -0.3022
     15 H          65.3400   94.5188    8.7038 H       1  UNL1        0.1497
     16 O          63.6303   88.6076   15.9236 O.3     1  UNL1       -0.4352
     17 C          63.6796   87.1254   15.6985 C.ar    1  UNL1        0.1578
     18 C          64.2978   86.5771   14.4466 C.ar    1  UNL1        0.0415
     19 C          64.3471   85.0949   14.2215 C.ar    1  UNL1        0.0401
     20 C          63.7781   84.1610   15.2482 C.ar    1  UNL1        0.1399
     21 C          63.1599   84.7093   16.5001 C.ar    1  UNL1        0.0514
     22 C          63.1106   86.1915   16.7252 C.ar    1  UNL1        0.0952
     23 CL         62.4924   86.7398   17.9771 Cl      1  UNL1       -0.0790
     24 O          63.8274   82.6788   15.0230 O.3     1  UNL1       -0.4693
     25 C          63.7583   82.1292   13.6291 C.3     1  UNL1        0.2772
     26 C          62.5626   81.3345   13.1947 C.3     1  UNL1        0.3615
     27 F          61.2495   81.5098   13.8986 F       1  UNL1       -0.1942
     28 F          62.6798   80.3646   12.0566 F       1  UNL1       -0.1942
@<TRIPOS>BOND
     1    11    12    1
     2    12    13    2
     3    12    14   am
     4    14     9    1
     5     9    10    1
     6     9     7    1
     7     7     8    2
     8     8     1    1
     9     1     2   ar
    10     2     3   ar
    11     3     4   ar
    12     4    16    1
    13    16    17    1
    14    17    18   ar
    15    18    19   ar
    16    19    20   ar
    17    20    24    1
    18    24    25    1
    19    25    26    1
    20    26    27    1
    21    26    28    1
    22    20    21   ar
    23    21    22   ar
    24    22    23    1
    25     4     5   ar
    26     5     6   ar
    27     6     1   ar
    28    22    17   ar
    29    14    15    1
@<TRIPOS>MOLECULE
*****
 28 29 0 0 0
SMALL
GASTEIGER

@<TRIPOS>ATOM
      1 C          63.7077   86.2296   13.3160 C.ar    1  UNL1        0.0191
      2 C          64.3242   86.8313   14.5439 C.ar    1  UNL1        0.0063
      3 C          64.3127   88.3187   14.7371 C.ar    1  UNL1        0.0581
      4 C          63.6846   89.2045   13.7023 C.ar    1  UNL1        0.2297
      5 N          63.0681   88.6029   12.4744 N.ar    1  UNL1       -0.2098
      6 C          63.0796   87.1154   12.2812 C.ar    1  UNL1        0.1020
      7 C          63.0776   84.1385   11.9088 C.2     1  UNL1       -0.0069
      8 C          63.7193   84.7422   13.1228 C.2     1  UNL1       -0.0014
      9 C          63.0892   82.6510   11.7156 C.3     1  UNL1        0.0939
     10 C          64.2374   81.9957   11.0069 C.3     1  UNL1        0.0262
     11 C          60.7704   80.5937   14.1936 C.3     1  UNL1        0.0946
     12 C          61.9069   81.4258   13.6780 C.2     1  UNL1        0.2232
     13 O          62.9978   81.8648   14.6093 O.2     1  UNL1       -0.2751
     14 N          61.9527   81.8189   12.2312 N.am    1  UNL1       -0.3022
     15 H          61.2367   81.5308   11.6199 H       1  UNL1        0.1497
     16 O          63.6730   90.6920   13.8955 O.3     1  UNL1       -0.4352
     17 C          64.6210   91.5566   13.1185 C.ar    1  UNL1        0.1578
     18 C          65.8465   92.1110   13.7826 C.ar    1  UNL1        0.0415
     19 C          66.7944   92.9756   13.0056 C.ar    1  UNL1        0.0401
     20 C          66.5170   93.2859   11.5645 C.ar    1  UNL1        0.1399
     21 C          65.2916   92.7315   10.9004 C.ar    1  UNL1        0.0514
     22 C          64.3435   91.8669   11.6774 C.ar    1  UNL1        0.0952
     23 CL         63.1182   91.3125   11.0133 Cl      1  UNL1       -0.0790
     24 O          67.4650   94.1505   10.7874 O.3     1  UNL1       -0.4693
     25 C          66.9324   95.2037    9.8616 C.3     1  UNL1        0.2772
     26 C          67.0741   95.0388    8.3775 C.3     1  UNL1        0.3615
     27 F          66.4145   96.0141    7.4481 F       1  UNL1       -0.1942
     28 F          67.8753   93.8985    7.8227 F       1  UNL1       -0.1942
@<TRIPOS>BOND
     1    11    12    1
     2    12    13    2
     3    12    14   am
     4    14     9    1
     5     9    10    1
     6     9     7    1
     7     7     8    2
     8     8     1    1
     9     1     2   ar
    10     2     3   ar
    11     3     4   ar
    12     4    16    1
    13    16    17    1
    14    17    18   ar
    15    18    19   ar
    16    19    20   ar
    17    20    24    1
    18    24    25    1
    19    25    26    1
    20    26    27    1
    21    26    28    1
    22    20    21   ar
    23    21    22   ar
    24    22    23    1
    25     4     5   ar
    26     5     6   ar
    27     6     1   ar
    28    22    17   ar
    29    14    15    1
@<TRIPOS>MOLECULE
*****
 28 29 0 0 0
SMALL
GASTEIGER

@<TRIPOS>ATOM
      1 C          63.6333   86.5422   15.6464 C.ar    1  UNL1        0.0191
      2 C          63.0376   87.3594   16.7542 C.ar    1  UNL1        0.0063
      3 C          63.1784   88.8528   16.7439 C.ar    1  UNL1        0.0581
      4 C          63.9150   89.5289   15.6257 C.ar    1  UNL1        0.2297
      5 N          64.5106   88.7117   14.5179 N.ar    1  UNL1       -0.2098
      6 C          64.3698   87.2184   14.5282 C.ar    1  UNL1        0.1020
      7 C          63.3011   84.3047   14.3685 C.2     1  UNL1       -0.0069
      8 C          63.4924   85.0489   15.6567 C.2     1  UNL1       -0.0014
      9 C          63.1602   82.8114   14.3788 C.3     1  UNL1        0.0939
     10 C          64.3453   81.9441   14.0729 C.3     1  UNL1        0.0262
     11 C          60.0297   80.3773   14.2213 C.3     1  UNL1        0.0946
     12 C          61.3556   81.0034   13.9051 C.2     1  UNL1        0.2232
     13 O          62.2027   80.4476   12.7990 O.2     1  UNL1       -0.2751
     14 N          61.8344   82.1852   14.6950 N.am    1  UNL1       -0.3022
     15 H          61.2784   82.5500   15.4210 H       1  UNL1        0.1497
     16 O          64.0558   91.0222   15.6154 O.3     1  UNL1       -0.4352
     17 C          64.8388   91.6942   14.5267 C.ar    1  UNL1        0.1578
     18 C          64.4121   91.5478   13.0961 C.ar    1  UNL1        0.0415
     19 C          65.1951   92.2198   12.0074 C.ar    1  UNL1        0.0401
     20 C          66.4048   93.0382   12.3492 C.ar    1  UNL1        0.1399
     21 C          66.8316   93.1846   13.7797 C.ar    1  UNL1        0.0514
     22 C          66.0485   92.5126   14.8685 C.ar    1  UNL1        0.0952
     23 CL         66.4753   92.6590   16.2990 Cl      1  UNL1       -0.0790
     24 O          67.1878   93.7101   11.2604 O.3     1  UNL1       -0.4693
     25 C          66.5747   94.8352   10.4805 C.3     1  UNL1        0.2772
     26 C          67.2738   95.3761    9.2687 C.3     1  UNL1        0.3615
     27 F          67.5097   94.4905    8.0812 F       1  UNL1       -0.1942
     28 F          67.7372   96.8026    9.2443 F       1  UNL1       -0.1942
@<TRIPOS>BOND
     1    11    12    1
     2    12    13    2
     3    12    14   am
     4    14     9    1
     5     9    10    1
     6     9     7    1
     7     7     8    2
     8     8     1    1
     9     1     2   ar
    10     2     3   ar
    11     3     4   ar
    12     4    16    1
    13    16    17    1
    14    17    18   ar
    15    18    19   ar
    16    19    20   ar
    17    20    24    1
    18    24    25    1
    19    25    26    1
    20    26    27    1
    21    26    28    1
    22    20    21   ar
    23    21    22   ar
    24    22    23    1
    25     4     5   ar
    26     5     6   ar
    27     6     1   ar
    28    22    17   ar
    29    14    15    1
@<TRIPOS>MOLECULE
*****
 28 29 0 0 0
SMALL
GASTEIGER

@<TRIPOS>ATOM
      1 C          63.7438   85.8353   13.3009 C.ar    1  UNL1        0.0191
      2 C          64.3290   86.7827   14.3058 C.ar    1  UNL1        0.0063
      3 C          64.0897   88.2576   14.1741 C.ar    1  UNL1        0.0581
      4 C          63.2653   88.7851   13.0375 C.ar    1  UNL1        0.2297
      5 N          62.6801   87.8377   12.0326 N.ar    1  UNL1       -0.2098
      6 C          62.9194   86.3628   12.1643 C.ar    1  UNL1        0.1020
      7 C          62.8949   83.3897   13.0812 C.2     1  UNL1       -0.0069
      8 C          63.9831   84.3603   13.4326 C.2     1  UNL1       -0.0014
      9 C          63.1342   81.9147   13.2129 C.3     1  UNL1        0.0939
     10 C          63.8723   81.3780   14.4034 C.3     1  UNL1        0.0262
     11 C          62.7705   80.0366    9.7358 C.3     1  UNL1        0.0946
     12 C          63.2692   80.9748   10.7946 C.2     1  UNL1        0.2232
     13 O          64.4016   81.9113   10.4938 O.2     1  UNL1       -0.2751
     14 N          62.6355   80.9765   12.1542 N.am    1  UNL1       -0.3022
     15 H          61.8922   80.3619   12.3516 H       1  UNL1        0.1497
     16 O          63.0260   90.2600   12.9058 O.3     1  UNL1       -0.4352
     17 C          64.1243   91.1573   12.4174 C.ar    1  UNL1        0.1578
     18 C          65.2365   91.5534   13.3427 C.ar    1  UNL1        0.0415
     19 C          66.3348   92.4507   12.8543 C.ar    1  UNL1        0.0401
     20 C          66.3209   92.9520   11.4406 C.ar    1  UNL1        0.1399
     21 C          65.2087   92.5560   10.5153 C.ar    1  UNL1        0.0514
     22 C          64.1104   91.6586   11.0037 C.ar    1  UNL1        0.0952
     23 CL         62.9982   91.2626   10.0784 Cl      1  UNL1       -0.0790
     24 O          67.4193   93.8494   10.9522 O.3     1  UNL1       -0.4693
     25 C          67.2630   94.5894    9.6569 C.3     1  UNL1        0.2772
     26 C          66.8312   96.0259    9.6612 C.3     1  UNL1        0.3615
     27 F          66.2357   96.6337    8.4259 F       1  UNL1       -0.1942
     28 F          66.9948   96.8545   10.9008 F       1  UNL1       -0.1942
@<TRIPOS>BOND
     1    11    12    1
     2    12    13    2
     3    12    14   am
     4    14     9    1
     5     9    10    1
     6     9     7    1
     7     7     8    2
     8     8     1    1
     9     1     2   ar
    10     2     3   ar
    11     3     4   ar
    12     4    16    1
    13    16    17    1
    14    17    18   ar
    15    18    19   ar
    16    19    20   ar
    17    20    24    1
    18    24    25    1
    19    25    26    1
    20    26    27    1
    21    26    28    1
    22    20    21   ar
    23    21    22   ar
    24    22    23    1
    25     4     5   ar
    26     5     6   ar
    27     6     1   ar
    28    22    17   ar
    29    14    15    1
@<TRIPOS>MOLECULE
*****
 28 29 0 0 0
SMALL
GASTEIGER

@<TRIPOS>ATOM
      1 C          63.6299   91.0290   11.7357 C.ar    1  UNL1        0.0191
      2 C          63.0219   91.0400   10.3645 C.ar    1  UNL1        0.0063
      3 C          62.3034   89.8267    9.8529 C.ar    1  UNL1        0.0581
      4 C          62.1929   88.6024   10.7125 C.ar    1  UNL1        0.2297
      5 N          62.8009   88.5915   12.0837 N.ar    1  UNL1       -0.2098
      6 C          63.5194   89.8047   12.5953 C.ar    1  UNL1        0.1020
      7 C          65.8275   92.3810   12.0399 C.2     1  UNL1       -0.0069
      8 C          64.3484   92.2422   12.2473 C.2     1  UNL1       -0.0014
      9 C          66.5460   93.5943   12.5515 C.3     1  UNL1        0.0939
     10 C          66.2755   94.9384   11.9428 C.3     1  UNL1        0.0262
     11 C          68.0515   92.9850   16.1725 C.3     1  UNL1        0.0946
     12 C          67.0626   93.1157   15.0523 C.2     1  UNL1        0.2232
     13 O          65.6015   92.8986   15.3126 O.2     1  UNL1       -0.2751
     14 N          67.5349   93.4636   13.6717 N.am    1  UNL1       -0.3022
     15 H          68.4939   93.6061   13.5009 H       1  UNL1        0.1497
     16 O          61.4744   87.3892   10.2009 O.3     1  UNL1       -0.4352
     17 C          62.1787   86.0658   10.1513 C.ar    1  UNL1        0.1578
     18 C          62.7665   85.5769    8.8607 C.ar    1  UNL1        0.0415
     19 C          63.4708   84.2535    8.8111 C.ar    1  UNL1        0.0401
     20 C          63.5874   83.4189   10.0520 C.ar    1  UNL1        0.1399
     21 C          62.9996   83.9077   11.3425 C.ar    1  UNL1        0.0514
     22 C          62.2952   85.2312   11.3922 C.ar    1  UNL1        0.0952
     23 CL         61.7075   85.7200   12.6827 Cl      1  UNL1       -0.0790
     24 O          64.2917   82.0954   10.0023 O.3     1  UNL1       -0.4693
     25 C          64.0473   81.0750   11.0743 C.3     1  UNL1        0.2772
     26 C          63.0465   79.9799   10.8530 C.3     1  UNL1        0.3615
     27 F          62.4156   79.2920   12.0273 F       1  UNL1       -0.1942
     28 F          62.6767   79.5725    9.4576 F       1  UNL1       -0.1942
@<TRIPOS>BOND
     1    11    12    1
     2    12    13    2
     3    12    14   am
     4    14     9    1
     5     9    10    1
     6     9     7    1
     7     7     8    2
     8     8     1    1
     9     1     2   ar
    10     2     3   ar
    11     3     4   ar
    12     4    16    1
    13    16    17    1
    14    17    18   ar
    15    18    19   ar
    16    19    20   ar
    17    20    24    1
    18    24    25    1
    19    25    26    1
    20    26    27    1
    21    26    28    1
    22    20    21   ar
    23    21    22   ar
    24    22    23    1
    25     4     5   ar
    26     5     6   ar
    27     6     1   ar
    28    22    17   ar
    29    14    15    1
@<TRIPOS>MOLECULE
*****
 28 29 0 0 0
SMALL
GASTEIGER

@<TRIPOS>ATOM
      1 C          63.4278   85.0638   12.7550 C.ar    1  UNL1        0.0191
      2 C          64.0137   86.0669   13.7039 C.ar    1  UNL1        0.0063
      3 C          63.7184   87.5270   13.5283 C.ar    1  UNL1        0.0581
      4 C          62.8372   87.9840   12.4037 C.ar    1  UNL1        0.2297
      5 N          62.2513   86.9809   11.4548 N.ar    1  UNL1       -0.2098
      6 C          62.5467   85.5208   11.6305 C.ar    1  UNL1        0.1020
      7 C          62.6112   82.5996   12.8584 C.2     1  UNL1       -0.0069
      8 C          63.7232   83.6037   12.9306 C.2     1  UNL1       -0.0014
      9 C          62.9065   81.1395   13.0340 C.3     1  UNL1        0.0939
     10 C          63.5583   80.6524   14.2942 C.3     1  UNL1        0.0262
     11 C          62.6746   79.4236    9.4631 C.3     1  UNL1        0.0946
     12 C          63.0311   80.3966   10.5475 C.2     1  UNL1        0.2232
     13 O          63.8686   81.5998   10.2300 O.2     1  UNL1       -0.2751
     14 N          62.5500   80.1665   11.9496 N.am    1  UNL1       -0.3022
     15 H          62.0003   79.3767   12.1580 H       1  UNL1        0.1497
     16 O          62.5419   89.4441   12.2281 O.3     1  UNL1       -0.4352
     17 C          63.6092   90.4630   12.4979 C.ar    1  UNL1        0.1578
     18 C          64.2531   90.5343   13.8509 C.ar    1  UNL1        0.0415
     19 C          65.3204   91.5531   14.1207 C.ar    1  UNL1        0.0401
     20 C          65.7438   92.5006   13.0377 C.ar    1  UNL1        0.1399
     21 C          65.0999   92.4293   11.6848 C.ar    1  UNL1        0.0514
     22 C          64.0326   91.4105   11.4149 C.ar    1  UNL1        0.0952
     23 CL         63.3887   91.3392   10.0621 Cl      1  UNL1       -0.0790
     24 O          66.8112   93.5195   13.3076 O.3     1  UNL1       -0.4693
     25 C          67.1881   93.8547   14.7202 C.3     1  UNL1        0.2772
     26 C          68.2705   93.0799   15.4115 C.3     1  UNL1        0.3615
     27 F          69.6898   93.1884   14.9383 F       1  UNL1       -0.1942
     28 F          67.9338   92.1966   16.5762 F       1  UNL1       -0.1942
@<TRIPOS>BOND
     1    11    12    1
     2    12    13    2
     3    12    14   am
     4    14     9    1
     5     9    10    1
     6     9     7    1
     7     7     8    2
     8     8     1    1
     9     1     2   ar
    10     2     3   ar
    11     3     4   ar
    12     4    16    1
    13    16    17    1
    14    17    18   ar
    15    18    19   ar
    16    19    20   ar
    17    20    24    1
    18    24    25    1
    19    25    26    1
    20    26    27    1
    21    26    28    1
    22    20    21   ar
    23    21    22   ar
    24    22    23    1
    25     4     5   ar
    26     5     6   ar
    27     6     1   ar
    28    22    17   ar
    29    14    15    1
