@<TRIPOS>MOLECULE
*****
 35 39 0 0 0
SMALL
GASTEIGER

@<TRIPOS>ATOM
      1 C          62.9888   86.5502   12.3841 C.2     1  UNL1        0.2506
      2 O          63.5081   87.4355   13.4779 O.2     1  UNL1       -0.2699
      3 N          62.1385   87.1278   11.2917 N.am    1  UNL1       -0.2724
      4 C          61.6192   86.2425   10.1979 C.3     1  UNL1        0.1231
      5 C          60.7689   86.8202    9.1055 C.3     1  UNL1        0.1351
      6 C          60.2496   85.9349    8.0116 C.3     1  UNL1        0.0339
      7 O          60.4380   88.2832    9.1069 O.3     1  UNL1       -0.3527
      8 C          60.9573   89.1686   10.2007 C.3     1  UNL1        0.1621
      9 C          61.8075   88.5909   11.2931 C.3     1  UNL1        0.1097
     10 C          64.1870   82.2100    9.7903 C.3     1  UNL1        0.0310
     11 C          63.9188   82.9171   11.0858 C.ar    1  UNL1       -0.0216
     12 C          63.9816   82.1611   12.3798 C.ar    1  UNL1       -0.0026
     13 C          63.7135   82.8681   13.6752 C.ar    1  UNL1        0.0207
     14 C          63.3826   84.3311   13.6767 C.ar    1  UNL1        0.1072
     15 C          63.3197   85.0871   12.3827 C.ar    1  UNL1        0.0726
     16 C          63.5879   84.3801   11.0872 C.ar    1  UNL1        0.0018
     17 N          63.1144   85.0381   14.9721 N.ar    1  UNL1       -0.1477
     18 N          61.8139   85.0461   15.7195 N.ar    1  UNL1       -0.1447
     19 C          61.9954   85.8742   16.9570 C.ar    1  UNL1        0.1446
     20 C          63.4082   86.3781   16.9744 C.ar    1  UNL1        0.1446
     21 N          64.0997   85.8614   15.7477 N.ar    1  UNL1       -0.1447
     22 C          62.3269   89.4763   12.3869 C.3     1  UNL1        0.0510
     23 C          63.4058   90.4762   12.0938 C.ar    1  UNL1        0.0071
     24 C          64.4233   90.8111   13.1438 C.ar    1  UNL1        0.0011
     25 C          65.5023   91.8111   12.8507 C.ar    1  UNL1        0.0356
     26 C          65.5637   92.4762   11.5076 C.ar    1  UNL1        0.0053
     27 C          64.5461   92.1412   10.4576 C.ar    1  UNL1        0.0294
     28 C          63.4672   91.1413   10.7507 C.ar    1  UNL1        0.1362
     29 F          62.4497   90.8064    9.7007 F       1  UNL1       -0.2045
     30 C          66.5198   92.1460   13.9006 C.ar    1  UNL1        0.1622
     31 N          67.9786   92.1663   13.5520 N.ar    1  UNL1       -0.2250
     32 C          68.9961   92.5012   14.6019 C.ar    1  UNL1        0.1022
     33 C          68.5548   92.8158   16.0007 C.ar    1  UNL1        0.0414
     34 C          67.0961   92.7954   16.3494 C.ar    1  UNL1        0.1022
     35 N          66.0786   92.4605   15.2993 N.ar    1  UNL1       -0.2250
@<TRIPOS>BOND
     1    10    11    1
     2    11    12   ar
     3    12    13   ar
     4    13    14   ar
     5    14    17    1
     6    17    18   ar
     7    18    19   ar
     8    19    20   ar
     9    20    21   ar
    10    14    15   ar
    11    15     1    1
    12     1     2    2
    13     1     3   am
    14     3     4    1
    15     4     5    1
    16     5     6    1
    17     5     7    1
    18     7     8    1
    19     8     9    1
    20     9    22    1
    21    22    23    1
    22    23    24   ar
    23    24    25   ar
    24    25    30    1
    25    30    31   ar
    26    31    32   ar
    27    32    33   ar
    28    33    34   ar
    29    34    35   ar
    30    25    26   ar
    31    26    27   ar
    32    27    28   ar
    33    28    29    1
    34    15    16   ar
    35    16    11   ar
    36    21    17   ar
    37     9     3    1
    38    28    23   ar
    39    35    30   ar
@<TRIPOS>MOLECULE
*****
 35 39 0 0 0
SMALL
GASTEIGER

@<TRIPOS>ATOM
      1 C          62.7666   87.2567   11.8097 C.2     1  UNL1        0.2506
      2 O          63.4171   87.3937   13.1544 O.2     1  UNL1       -0.2699
      3 N          61.9726   88.3952   11.2412 N.am    1  UNL1       -0.2724
      4 C          61.3221   88.2582    9.8965 C.3     1  UNL1        0.1231
      5 C          60.5281   89.3968    9.3280 C.3     1  UNL1        0.1351
      6 C          59.8776   89.2598    7.9833 C.3     1  UNL1        0.0339
      7 O          60.3846   90.6723   10.1041 O.3     1  UNL1       -0.3527
      8 C          61.0351   90.8093   11.4487 C.3     1  UNL1        0.1621
      9 C          61.8291   89.6708   12.0173 C.3     1  UNL1        0.1097
     10 C          62.8276   84.7362    7.2662 C.3     1  UNL1        0.0310
     11 C          62.9406   84.7208    8.7619 C.ar    1  UNL1       -0.0216
     12 C          63.1971   83.4300    9.4814 C.ar    1  UNL1       -0.0026
     13 C          63.3101   83.4146   10.9771 C.ar    1  UNL1        0.0207
     14 C          63.1665   84.6902   11.7532 C.ar    1  UNL1        0.1072
     15 C          62.9101   85.9810   11.0336 C.ar    1  UNL1        0.0726
     16 C          62.7971   85.9964    9.5380 C.ar    1  UNL1        0.0018
     17 N          63.2795   84.6748   13.2489 N.ar    1  UNL1       -0.1477
     18 N          64.5557   84.6922   14.0369 N.ar    1  UNL1       -0.1447
     19 C          64.2011   84.6675   15.4942 C.ar    1  UNL1        0.1446
     20 C          62.7057   84.6349   15.6068 C.ar    1  UNL1        0.1446
     21 N          62.1361   84.6394   14.2191 N.ar    1  UNL1       -0.1447
     22 C          62.4796   89.8078   13.3619 C.3     1  UNL1        0.0510
     23 C          63.7108   90.6503   13.5171 C.ar    1  UNL1        0.0071
     24 C          64.2805   91.3712   12.3315 C.ar    1  UNL1        0.0011
     25 C          65.5119   92.2138   12.4866 C.ar    1  UNL1        0.0356
     26 C          66.1735   92.3353   13.8273 C.ar    1  UNL1        0.0053
     27 C          65.6037   91.6143   15.0129 C.ar    1  UNL1        0.0294
     28 C          64.3724   90.7718   14.8578 C.ar    1  UNL1        0.1362
     29 F          63.8027   90.0509   16.0434 F       1  UNL1       -0.2045
     30 C          66.0816   92.9347   11.3010 C.ar    1  UNL1        0.1622
     31 N          65.5486   94.2828   10.9158 N.ar    1  UNL1       -0.2250
     32 C          66.1183   95.0038    9.7302 C.ar    1  UNL1        0.1022
     33 C          67.2211   94.3766    8.9298 C.ar    1  UNL1        0.0414
     34 C          67.7541   93.0284    9.3151 C.ar    1  UNL1        0.1022
     35 N          67.1844   92.3075   10.5007 N.ar    1  UNL1       -0.2250
@<TRIPOS>BOND
     1    10    11    1
     2    11    12   ar
     3    12    13   ar
     4    13    14   ar
     5    14    17    1
     6    17    18   ar
     7    18    19   ar
     8    19    20   ar
     9    20    21   ar
    10    14    15   ar
    11    15     1    1
    12     1     2    2
    13     1     3   am
    14     3     4    1
    15     4     5    1
    16     5     6    1
    17     5     7    1
    18     7     8    1
    19     8     9    1
    20     9    22    1
    21    22    23    1
    22    23    24   ar
    23    24    25   ar
    24    25    30    1
    25    30    31   ar
    26    31    32   ar
    27    32    33   ar
    28    33    34   ar
    29    34    35   ar
    30    25    26   ar
    31    26    27   ar
    32    27    28   ar
    33    28    29    1
    34    15    16   ar
    35    16    11   ar
    36    21    17   ar
    37     9     3    1
    38    28    23   ar
    39    35    30   ar
@<TRIPOS>MOLECULE
*****
 35 39 0 0 0
SMALL
GASTEIGER

@<TRIPOS>ATOM
      1 C          63.7456   86.9135   13.3876 C.2     1  UNL1        0.2506
      2 O          64.5813   87.3527   14.5533 O.2     1  UNL1       -0.2699
      3 N          63.1757   87.9334   12.4468 N.am    1  UNL1       -0.2724
      4 C          62.3400   87.4942   11.2812 C.3     1  UNL1        0.1231
      5 C          61.7702   88.5142   10.3404 C.3     1  UNL1        0.1351
      6 C          60.9345   88.0750    9.1747 C.3     1  UNL1        0.0339
      7 O          62.0359   89.9732   10.5653 O.3     1  UNL1       -0.3527
      8 C          62.8716   90.4123   11.7310 C.3     1  UNL1        0.1621
      9 C          63.4415   89.3925   12.6717 C.3     1  UNL1        0.1097
     10 C          63.6675   82.7883   10.2291 C.3     1  UNL1        0.0310
     11 C          63.4408   83.3919   11.5834 C.ar    1  UNL1       -0.0216
     12 C          62.9483   82.5364   12.7129 C.ar    1  UNL1       -0.0026
     13 C          62.7216   83.1400   14.0672 C.ar    1  UNL1        0.0207
     14 C          62.9874   84.5990   14.2922 C.ar    1  UNL1        0.1072
     15 C          63.4798   85.4544   13.1627 C.ar    1  UNL1        0.0726
     16 C          63.7065   84.8509   11.8083 C.ar    1  UNL1        0.0018
     17 N          62.7607   85.2026   15.6465 N.ar    1  UNL1       -0.1477
     18 N          63.8186   85.5010   16.6671 N.ar    1  UNL1       -0.1447
     19 C          63.1480   86.0966   17.8695 C.ar    1  UNL1        0.1446
     20 C          61.6756   86.1662   17.5920 C.ar    1  UNL1        0.1446
     21 N          61.4362   85.6137   16.2181 N.ar    1  UNL1       -0.1447
     22 C          64.2772   89.8316   13.8374 C.3     1  UNL1        0.0510
     23 C          65.0350   91.1244   13.7722 C.ar    1  UNL1        0.0071
     24 C          65.4909   91.6604   12.4475 C.ar    1  UNL1        0.0011
     25 C          66.2489   92.9533   12.3822 C.ar    1  UNL1        0.0356
     26 C          66.5508   93.7100   13.6416 C.ar    1  UNL1        0.0053
     27 C          66.0949   93.1739   14.9664 C.ar    1  UNL1        0.0294
     28 C          65.3370   91.8812   15.0316 C.ar    1  UNL1        0.1362
     29 F          64.8811   91.3451   16.3562 F       1  UNL1       -0.2045
     30 C          66.7048   93.4893   11.0576 C.ar    1  UNL1        0.1622
     31 N          67.7336   92.7435   10.2606 N.ar    1  UNL1       -0.2250
     32 C          68.1895   93.2795    8.9359 C.ar    1  UNL1        0.1022
     33 C          67.6166   94.5614    8.4082 C.ar    1  UNL1        0.0414
     34 C          66.5877   95.3073    9.2051 C.ar    1  UNL1        0.1022
     35 N          66.1318   94.7712   10.5299 N.ar    1  UNL1       -0.2250
@<TRIPOS>BOND
     1    10    11    1
     2    11    12   ar
     3    12    13   ar
     4    13    14   ar
     5    14    17    1
     6    17    18   ar
     7    18    19   ar
     8    19    20   ar
     9    20    21   ar
    10    14    15   ar
    11    15     1    1
    12     1     2    2
    13     1     3   am
    14     3     4    1
    15     4     5    1
    16     5     6    1
    17     5     7    1
    18     7     8    1
    19     8     9    1
    20     9    22    1
    21    22    23    1
    22    23    24   ar
    23    24    25   ar
    24    25    30    1
    25    30    31   ar
    26    31    32   ar
    27    32    33   ar
    28    33    34   ar
    29    34    35   ar
    30    25    26   ar
    31    26    27   ar
    32    27    28   ar
    33    28    29    1
    34    15    16   ar
    35    16    11   ar
    36    21    17   ar
    37     9     3    1
    38    28    23   ar
    39    35    30   ar
@<TRIPOS>MOLECULE
*****
 35 39 0 0 0
SMALL
GASTEIGER

@<TRIPOS>ATOM
      1 C          62.5686   88.6722   11.6976 C.2     1  UNL1        0.2506
      2 O          62.3919   90.1617   11.7051 O.2     1  UNL1       -0.2699
      3 N          63.3162   88.0000   12.8107 N.am    1  UNL1       -0.2724
      4 C          63.4929   86.5104   12.8032 C.3     1  UNL1        0.1231
      5 C          64.2405   85.8382   13.9164 C.3     1  UNL1        0.1351
      6 C          64.4172   84.3487   13.9088 C.3     1  UNL1        0.0339
      7 O          64.8114   86.6555   15.0371 O.3     1  UNL1       -0.3527
      8 C          64.6347   88.1450   15.0447 C.3     1  UNL1        0.1621
      9 C          63.8871   88.8173   13.9315 C.3     1  UNL1        0.1097
     10 C          63.1548   85.0531    8.0154 C.3     1  UNL1        0.0310
     11 C          62.2908   86.0454    8.7357 C.ar    1  UNL1       -0.0216
     12 C          60.8559   86.2203    8.3353 C.ar    1  UNL1       -0.0026
     13 C          59.9918   87.2125    9.0556 C.ar    1  UNL1        0.0207
     14 C          60.5627   88.0298   10.1764 C.ar    1  UNL1        0.1072
     15 C          61.9976   87.8549   10.5768 C.ar    1  UNL1        0.0726
     16 C          62.8617   86.8626    9.8564 C.ar    1  UNL1        0.0018
     17 N          59.6987   89.0221   10.8967 N.ar    1  UNL1       -0.1477
     18 N          59.5022   90.4598   10.5167 N.ar    1  UNL1       -0.1447
     19 C          58.5615   91.0771   11.5087 C.ar    1  UNL1        0.1446
     20 C          58.1765   90.0209   12.5018 C.ar    1  UNL1        0.1446
     21 N          58.8793   88.7508   12.1235 N.ar    1  UNL1       -0.1447
     22 C          63.7104   90.3068   13.9391 C.3     1  UNL1        0.0510
     23 C          64.9114   91.2047   13.9049 C.ar    1  UNL1        0.0071
     24 C          65.4907   91.6326   12.5892 C.ar    1  UNL1        0.0011
     25 C          66.6918   92.5306   12.5549 C.ar    1  UNL1        0.0356
     26 C          67.3136   93.0006   13.8365 C.ar    1  UNL1        0.0053
     27 C          66.7342   92.5727   15.1524 C.ar    1  UNL1        0.0294
     28 C          65.5332   91.6747   15.1865 C.ar    1  UNL1        0.1362
     29 F          64.9539   91.2468   16.5023 F       1  UNL1       -0.2045
     30 C          67.2711   92.9585   11.2392 C.ar    1  UNL1        0.1622
     31 N          66.9245   94.3017   10.6684 N.ar    1  UNL1       -0.2250
     32 C          67.5037   94.7296    9.3526 C.ar    1  UNL1        0.1022
     33 C          68.4296   93.8144    8.6076 C.ar    1  UNL1        0.0414
     34 C          68.7762   92.4712    9.1783 C.ar    1  UNL1        0.1022
     35 N          68.1969   92.0433   10.4942 N.ar    1  UNL1       -0.2250
@<TRIPOS>BOND
     1    10    11    1
     2    11    12   ar
     3    12    13   ar
     4    13    14   ar
     5    14    17    1
     6    17    18   ar
     7    18    19   ar
     8    19    20   ar
     9    20    21   ar
    10    14    15   ar
    11    15     1    1
    12     1     2    2
    13     1     3   am
    14     3     4    1
    15     4     5    1
    16     5     6    1
    17     5     7    1
    18     7     8    1
    19     8     9    1
    20     9    22    1
    21    22    23    1
    22    23    24   ar
    23    24    25   ar
    24    25    30    1
    25    30    31   ar
    26    31    32   ar
    27    32    33   ar
    28    33    34   ar
    29    34    35   ar
    30    25    26   ar
    31    26    27   ar
    32    27    28   ar
    33    28    29    1
    34    15    16   ar
    35    16    11   ar
    36    21    17   ar
    37     9     3    1
    38    28    23   ar
    39    35    30   ar
@<TRIPOS>MOLECULE
*****
 35 39 0 0 0
SMALL
GASTEIGER

@<TRIPOS>ATOM
      1 C          63.3554   88.3213   12.9146 C.2     1  UNL1        0.2506
      2 O          63.5435   89.2991   11.7927 O.2     1  UNL1       -0.2699
      3 N          63.3424   88.8030   14.3350 N.am    1  UNL1       -0.2724
      4 C          63.1542   87.8252   15.4569 C.3     1  UNL1        0.1231
      5 C          63.1413   88.3070   16.8774 C.3     1  UNL1        0.1351
      6 C          62.9531   87.3292   17.9993 C.3     1  UNL1        0.0339
      7 O          63.3164   89.7665   17.1760 O.3     1  UNL1       -0.3527
      8 C          63.5045   90.7443   16.0541 C.3     1  UNL1        0.1621
      9 C          63.5175   90.2626   14.6337 C.3     1  UNL1        0.1097
     10 C          64.5870   83.3590   13.8414 C.3     1  UNL1        0.0310
     11 C          63.7961   84.3807   13.0793 C.ar    1  UNL1       -0.0216
     12 C          62.8301   83.9428   12.0187 C.ar    1  UNL1       -0.0026
     13 C          62.0391   84.9644   11.2566 C.ar    1  UNL1        0.0207
     14 C          62.2142   86.4239   11.5552 C.ar    1  UNL1        0.1072
     15 C          63.1802   86.8618   12.6159 C.ar    1  UNL1        0.0726
     16 C          63.9712   85.8401   13.3780 C.ar    1  UNL1        0.0018
     17 N          61.4233   87.4455   10.7932 N.ar    1  UNL1       -0.1477
     18 N          61.6009   87.7982    9.3461 N.ar    1  UNL1       -0.1447
     19 C          60.6033   88.8645    9.0030 C.ar    1  UNL1        0.1446
     20 C          59.8091   89.1709   10.2380 C.ar    1  UNL1        0.1446
     21 N          60.3159   88.2939   11.3444 N.ar    1  UNL1       -0.1447
     22 C          63.7056   91.2403   13.5118 C.3     1  UNL1        0.0510
     23 C          65.0764   91.7568   13.1890 C.ar    1  UNL1        0.0071
     24 C          65.2595   92.7631   12.0919 C.ar    1  UNL1        0.0011
     25 C          66.6303   93.2797   11.7691 C.ar    1  UNL1        0.0356
     26 C          67.8179   92.7898   12.5434 C.ar    1  UNL1        0.0053
     27 C          67.6348   91.7834   13.6405 C.ar    1  UNL1        0.0294
     28 C          66.2640   91.2669   13.9633 C.ar    1  UNL1        0.1362
     29 F          66.0809   90.2606   15.0605 F       1  UNL1       -0.2045
     30 C          66.8134   94.2860   10.6719 C.ar    1  UNL1        0.1622
     31 N          67.3214   93.8486    9.3301 N.ar    1  UNL1       -0.2250
     32 C          67.5045   94.8549    8.2330 C.ar    1  UNL1        0.1022
     33 C          67.1797   96.2988    8.4777 C.ar    1  UNL1        0.0414
     34 C          66.6717   96.7362    9.8196 C.ar    1  UNL1        0.1022
     35 N          66.4885   95.7298   10.9167 N.ar    1  UNL1       -0.2250
@<TRIPOS>BOND
     1    10    11    1
     2    11    12   ar
     3    12    13   ar
     4    13    14   ar
     5    14    17    1
     6    17    18   ar
     7    18    19   ar
     8    19    20   ar
     9    20    21   ar
    10    14    15   ar
    11    15     1    1
    12     1     2    2
    13     1     3   am
    14     3     4    1
    15     4     5    1
    16     5     6    1
    17     5     7    1
    18     7     8    1
    19     8     9    1
    20     9    22    1
    21    22    23    1
    22    23    24   ar
    23    24    25   ar
    24    25    30    1
    25    30    31   ar
    26    31    32   ar
    27    32    33   ar
    28    33    34   ar
    29    34    35   ar
    30    25    26   ar
    31    26    27   ar
    32    27    28   ar
    33    28    29    1
    34    15    16   ar
    35    16    11   ar
    36    21    17   ar
    37     9     3    1
    38    28    23   ar
    39    35    30   ar
