@<TRIPOS>MOLECULE
*****
 37 41 0 0 0
SMALL
GASTEIGER

@<TRIPOS>ATOM
      1 C          68.8576   92.0212   16.9621 C.3     1  UNL1        0.0334
      2 C          67.9084   92.0359   15.8007 C.ar    1  UNL1        0.0057
      3 C          66.8179   91.0100   15.7103 C.ar    1  UNL1       -0.0008
      4 C          65.8687   91.0248   14.5489 C.ar    1  UNL1        0.0140
      5 C          64.7050   90.1479   14.1925 C.ar    1  UNL1        0.0120
      6 C          64.1272   90.6466   12.9013 C.ar    1  UNL1        0.1124
      7 N          64.9337   91.8317   12.4596 N.ar    1  UNL1       -0.3195
      8 C          66.0100   92.0654   13.4779 C.ar    1  UNL1        0.0622
      9 C          67.1005   93.0913   13.5684 C.ar    1  UNL1        0.0465
     10 C          68.0497   93.0766   14.7298 C.ar    1  UNL1        0.1376
     11 F          69.1403   94.1026   14.8202 F       1  UNL1       -0.2045
     12 C          64.2067   88.9777   14.9877 C.3     1  UNL1        0.1243
     13 C          64.5211   87.5801   14.5429 C.2     1  UNL1       -0.0115
     14 C          64.0229   86.4099   15.3381 C.2     1  UNL1        0.0141
     15 C          63.2101   86.6373   16.5781 C.2     1  UNL1        0.0883
     16 N          62.8957   88.0349   17.0229 N.am    1  UNL1       -0.1774
     17 C          63.3939   89.2051   16.2278 C.2     1  UNL1        0.2534
     18 O          63.0795   90.6027   16.6726 O.2     1  UNL1       -0.2723
     19 C          62.9495   90.0628   12.1785 C.2     1  UNL1        0.2796
     20 O          61.6816   89.7699   12.9245 O.2     1  UNL1       -0.2670
     21 N          63.0398   89.7719   10.7098 N.am    1  UNL1       -0.1841
     22 H          63.8720   89.9642   10.2201 H       1  UNL1        0.1765
     23 S          61.8622   89.1881    9.9870 S.O2    1  UNL1        0.0545
     24 O          62.5381   87.8492    9.9673 O.2     1  UNL1       -0.1545
     25 O          61.1863   90.5272   10.0068 O.2     1  UNL1       -0.1545
     26 C          60.6845   88.6044    9.2643 C.3     1  UNL1        0.1490
     27 C          59.6311   87.5436    9.1415 C.3     1  UNL1        0.0273
     28 C          59.6981   88.6540    8.1354 C.3     1  UNL1        0.0273
     29 C          64.7043   92.6411   11.2178 C.3     1  UNL1        0.1351
     30 C          65.8709   93.2195   10.4732 C.ar    1  UNL1        0.0301
     31 C          66.9873   92.3269   10.0181 C.ar    1  UNL1        0.0295
     32 C          68.1540   92.9052    9.2736 C.ar    1  UNL1        0.1400
     33 F          69.2703   92.0125    8.8186 F       1  UNL1       -0.2042
     34 C          68.2043   94.3761    8.9840 C.ar    1  UNL1        0.0319
     35 C          67.0880   95.2687    9.4390 C.ar    1  UNL1        0.0317
     36 C          65.9212   94.6904   10.1836 C.ar    1  UNL1        0.1381
     37 F          64.8049   95.5830   10.6386 F       1  UNL1       -0.2044
@<TRIPOS>BOND
     1     1     2    1
     2     2     3   ar
     3     3     4   ar
     4     4     5   ar
     5     5    12    1
     6    12    13    1
     7    13    14    2
     8    14    15    1
     9    15    16    2
    10    16    17    1
    11    17    18    2
    12     5     6   ar
    13     6    19    1
    14    19    20    2
    15    19    21   am
    16    21    23    1
    17    23    24    2
    18    23    25    2
    19    23    26    1
    20    26    27    1
    21    27    28    1
    22     6     7   ar
    23     7    29    1
    24    29    30    1
    25    30    31   ar
    26    31    32   ar
    27    32    33    1
    28    32    34   ar
    29    34    35   ar
    30    35    36   ar
    31    36    37    1
    32     7     8   ar
    33     8     9   ar
    34     9    10   ar
    35    10    11    1
    36    10     2   ar
    37     8     4   ar
    38    17    12    1
    39    28    26    1
    40    36    30   ar
    41    21    22    1
@<TRIPOS>MOLECULE
*****
 37 41 0 0 0
SMALL
GASTEIGER

@<TRIPOS>ATOM
      1 C          64.0210   85.6123   16.0061 C.3     1  UNL1        0.0334
      2 C          63.8453   86.5656   14.8614 C.ar    1  UNL1        0.0057
      3 C          64.4686   87.9288   14.9181 C.ar    1  UNL1       -0.0008
      4 C          64.2929   88.8820   13.7734 C.ar    1  UNL1        0.0140
      5 C          64.7857   90.2807   13.5473 C.ar    1  UNL1        0.0120
      6 C          64.2912   90.7352   12.2061 C.ar    1  UNL1        0.1124
      7 N          63.4928   89.6174   11.6033 N.ar    1  UNL1       -0.3195
      8 C          63.4940   88.4722   12.5719 C.ar    1  UNL1        0.0622
      9 C          62.8707   87.1090   12.5152 C.ar    1  UNL1        0.0465
     10 C          63.0464   86.1557   13.6599 C.ar    1  UNL1        0.1376
     11 F          62.4230   84.7925   13.6031 F       1  UNL1       -0.2045
     12 C          65.6254   91.0838   14.4959 C.3     1  UNL1        0.1243
     13 C          67.1070   91.1850   14.2845 C.2     1  UNL1       -0.0115
     14 C          67.9468   91.9881   15.2330 C.2     1  UNL1        0.0141
     15 C          67.3050   92.6900   16.3930 C.2     1  UNL1        0.0883
     16 N          65.8234   92.5887   16.6044 N.am    1  UNL1       -0.1774
     17 C          64.9836   91.7857   15.6558 C.2     1  UNL1        0.2534
     18 O          63.5020   91.6844   15.8672 O.2     1  UNL1       -0.2723
     19 C          64.5496   92.0726   11.5779 C.2     1  UNL1        0.2796
     20 O          63.5247   92.6854   10.6700 O.2     1  UNL1       -0.2670
     21 N          65.8328   92.7972   11.8576 N.am    1  UNL1       -0.1841
     22 H          66.5055   92.3950   12.4534 H       1  UNL1        0.1765
     23 S          66.0912   94.1346   11.2294 S.O2    1  UNL1        0.0545
     24 O          66.0016   94.7853   12.5779 O.2     1  UNL1       -0.1545
     25 O          66.1807   93.4838    9.8808 O.2     1  UNL1       -0.1545
     26 C          66.3496   95.4720   10.6011 C.3     1  UNL1        0.1490
     27 C          67.2616   96.4054    9.8617 C.3     1  UNL1        0.0273
     28 C          65.8850   96.8550   10.2524 C.3     1  UNL1        0.0273
     29 C          62.8128   89.6409   10.2665 C.3     1  UNL1        0.1351
     30 C          62.0518   88.4389    9.7910 C.ar    1  UNL1        0.0301
     31 C          62.7884   87.2571    9.2334 C.ar    1  UNL1        0.0295
     32 C          62.0275   86.0551    8.7579 C.ar    1  UNL1        0.1400
     33 F          62.7642   84.8734    8.2004 F       1  UNL1       -0.2042
     34 C          60.5299   86.0349    8.8398 C.ar    1  UNL1        0.0319
     35 C          59.7932   87.2167    9.3973 C.ar    1  UNL1        0.0317
     36 C          60.5542   88.4187    9.8729 C.ar    1  UNL1        0.1381
     37 F          59.8175   89.6004   10.4304 F       1  UNL1       -0.2044
@<TRIPOS>BOND
     1     1     2    1
     2     2     3   ar
     3     3     4   ar
     4     4     5   ar
     5     5    12    1
     6    12    13    1
     7    13    14    2
     8    14    15    1
     9    15    16    2
    10    16    17    1
    11    17    18    2
    12     5     6   ar
    13     6    19    1
    14    19    20    2
    15    19    21   am
    16    21    23    1
    17    23    24    2
    18    23    25    2
    19    23    26    1
    20    26    27    1
    21    27    28    1
    22     6     7   ar
    23     7    29    1
    24    29    30    1
    25    30    31   ar
    26    31    32   ar
    27    32    33    1
    28    32    34   ar
    29    34    35   ar
    30    35    36   ar
    31    36    37    1
    32     7     8   ar
    33     8     9   ar
    34     9    10   ar
    35    10    11    1
    36    10     2   ar
    37     8     4   ar
    38    17    12    1
    39    28    26    1
    40    36    30   ar
    41    21    22    1
