@<TRIPOS>MOLECULE
*****
 33 37 0 0 0
SMALL
GASTEIGER

@<TRIPOS>ATOM
      1 O          63.4188   87.3658   12.9562 O.2     1  UNL1       -0.2698
      2 C          62.7516   86.6085   11.8465 C.2     1  UNL1        0.2507
      3 N          61.7071   87.2782   11.0037 N.am    1  UNL1       -0.2723
      4 C          61.0400   86.5209    9.8939 C.3     1  UNL1        0.1257
      5 C          59.9954   87.1907    9.0511 C.3     1  UNL1        0.1637
      6 O          59.6180   88.6176    9.3180 O.3     1  UNL1       -0.3502
      7 C          60.2851   89.3749   10.4277 C.3     1  UNL1        0.1622
      8 C          61.3296   88.7052   11.2705 C.3     1  UNL1        0.1097
      9 C          63.1291   85.1814   11.5796 C.ar    1  UNL1        0.0738
     10 C          63.2823   84.6976   10.1681 C.ar    1  UNL1        0.0061
     11 C          63.6597   83.2706    9.9012 C.ar    1  UNL1        0.0011
     12 C          63.8840   82.3275   11.0459 C.ar    1  UNL1        0.0130
     13 C          63.7309   82.8114   12.4574 C.ar    1  UNL1        0.0771
     14 CL         63.9552   81.8682   13.6020 Cl      1  UNL1       -0.0806
     15 C          63.3534   84.2384   12.7243 C.ar    1  UNL1        0.1177
     16 N          63.2003   84.7222   14.1358 N.ar    1  UNL1       -0.1468
     17 N          64.2740   85.3507   14.9738 N.ar    1  UNL1       -0.1447
     18 C          63.6838   85.6795   16.3131 C.ar    1  UNL1        0.1446
     19 C          62.2454   85.2542   16.3028 C.ar    1  UNL1        0.1446
     20 N          61.9466   84.6626   14.9572 N.ar    1  UNL1       -0.1447
     21 C          61.9968   89.4625   12.3803 C.3     1  UNL1        0.0510
     22 C          63.0946   90.4363   12.0696 C.ar    1  UNL1        0.0086
     23 C          64.0613   90.8436   13.1417 C.ar    1  UNL1        0.0189
     24 C          65.1592   91.8175   12.8310 C.ar    1  UNL1        0.1027
     25 C          65.2902   92.3838   11.4483 C.ar    1  UNL1        0.0232
     26 C          64.3234   91.9764   10.3761 C.ar    1  UNL1        0.0309
     27 C          63.2256   91.0026   10.6868 C.ar    1  UNL1        0.1363
     28 F          62.2589   90.5952    9.6147 F       1  UNL1       -0.2045
     29 N          66.1259   92.2248   13.9031 N.ar    1  UNL1       -0.1478
     30 N          65.7769   92.5676   15.3211 N.ar    1  UNL1       -0.1447
     31 C          67.0467   92.9156   16.0398 C.ar    1  UNL1        0.1446
     32 C          68.1805   92.7879   15.0660 C.ar    1  UNL1        0.1446
     33 N          67.6114   92.3610   13.7455 N.ar    1  UNL1       -0.1447
@<TRIPOS>BOND
     1     1     2    2
     2     2     9    1
     3     9    10   ar
     4    10    11   ar
     5    11    12   ar
     6    12    13   ar
     7    13    14    1
     8    13    15   ar
     9    15    16    1
    10    16    17   ar
    11    17    18   ar
    12    18    19   ar
    13    19    20   ar
    14     2     3   am
    15     3     4    1
    16     4     5    1
    17     5     6    1
    18     6     7    1
    19     7     8    1
    20     8    21    1
    21    21    22    1
    22    22    23   ar
    23    23    24   ar
    24    24    29    1
    25    29    30   ar
    26    30    31   ar
    27    31    32   ar
    28    32    33   ar
    29    24    25   ar
    30    25    26   ar
    31    26    27   ar
    32    27    28    1
    33    15     9   ar
    34    20    16   ar
    35     8     3    1
    36    27    22   ar
    37    33    29   ar
@<TRIPOS>MOLECULE
*****
 33 37 0 0 0
SMALL
GASTEIGER

@<TRIPOS>ATOM
      1 O          63.5080   87.4799   13.5480 O.2     1  UNL1       -0.2698
      2 C          62.9659   87.0893   12.2050 C.2     1  UNL1        0.2507
      3 N          62.2859   88.1124   11.3443 N.am    1  UNL1       -0.2723
      4 C          61.7438   87.7218   10.0013 C.3     1  UNL1        0.1257
      5 C          61.0637   88.7449    9.1406 C.3     1  UNL1        0.1637
      6 O          60.9257   90.1585    9.6229 O.3     1  UNL1       -0.3502
      7 C          61.4678   90.5491   10.9659 C.3     1  UNL1        0.1622
      8 C          62.1478   89.5261   11.8266 C.3     1  UNL1        0.1097
      9 C          63.1040   85.6756   11.7227 C.ar    1  UNL1        0.0738
     10 C          63.1329   85.3846   10.2515 C.ar    1  UNL1        0.0061
     11 C          63.2709   83.9710    9.7692 C.ar    1  UNL1        0.0011
     12 C          63.3800   82.8485   10.7582 C.ar    1  UNL1        0.0130
     13 C          63.3511   83.1395   12.2294 C.ar    1  UNL1        0.0771
     14 CL         63.4602   82.0169   13.2183 Cl      1  UNL1       -0.0806
     15 C          63.2131   84.5531   12.7117 C.ar    1  UNL1        0.1177
     16 N          63.1841   84.8442   14.1829 N.ar    1  UNL1       -0.1468
     17 N          61.9642   84.8558   15.0555 N.ar    1  UNL1       -0.1447
     18 C          62.3961   85.1936   16.4517 C.ar    1  UNL1        0.1446
     19 C          63.8831   85.3906   16.4420 C.ar    1  UNL1        0.1446
     20 N          64.3701   85.1747   15.0397 N.ar    1  UNL1       -0.1447
     21 C          62.6899   89.9166   13.1696 C.3     1  UNL1        0.0510
     22 C          63.9981   90.6439   13.2678 C.ar    1  UNL1        0.0086
     23 C          64.4609   91.5111   12.1348 C.ar    1  UNL1        0.0189
     24 C          65.7691   92.2385   12.2329 C.ar    1  UNL1        0.1027
     25 C          66.6145   92.0986   13.4640 C.ar    1  UNL1        0.0232
     26 C          66.1516   91.2313   14.5971 C.ar    1  UNL1        0.0309
     27 C          64.8435   90.5040   14.4989 C.ar    1  UNL1        0.1363
     28 F          64.3807   89.6368   15.6319 F       1  UNL1       -0.2045
     29 N          66.2319   93.1057   11.0999 N.ar    1  UNL1       -0.1478
     30 N          65.7580   94.4979   10.8047 N.ar    1  UNL1       -0.1447
     31 C          66.4830   94.9856    9.5855 C.ar    1  UNL1        0.1446
     32 C          67.4051   93.8948    9.1272 C.ar    1  UNL1        0.1446
     33 N          67.2499   92.7330   10.0632 N.ar    1  UNL1       -0.1447
@<TRIPOS>BOND
     1     1     2    2
     2     2     9    1
     3     9    10   ar
     4    10    11   ar
     5    11    12   ar
     6    12    13   ar
     7    13    14    1
     8    13    15   ar
     9    15    16    1
    10    16    17   ar
    11    17    18   ar
    12    18    19   ar
    13    19    20   ar
    14     2     3   am
    15     3     4    1
    16     4     5    1
    17     5     6    1
    18     6     7    1
    19     7     8    1
    20     8    21    1
    21    21    22    1
    22    22    23   ar
    23    23    24   ar
    24    24    29    1
    25    29    30   ar
    26    30    31   ar
    27    31    32   ar
    28    32    33   ar
    29    24    25   ar
    30    25    26   ar
    31    26    27   ar
    32    27    28    1
    33    15     9   ar
    34    20    16   ar
    35     8     3    1
    36    27    22   ar
    37    33    29   ar
@<TRIPOS>MOLECULE
*****
 33 37 0 0 0
SMALL
GASTEIGER

@<TRIPOS>ATOM
      1 O          63.5645   88.0188   11.9788 O.2     1  UNL1       -0.2698
      2 C          63.5446   87.4322   13.3592 C.2     1  UNL1        0.2507
      3 N          63.4018   88.3289   14.5531 N.am    1  UNL1       -0.2723
      4 C          63.3820   87.7424   15.9335 C.3     1  UNL1        0.1257
      5 C          63.2392   88.6392   17.1275 C.3     1  UNL1        0.1637
      6 O          63.1162   90.1224   16.9410 O.3     1  UNL1       -0.3502
      7 C          63.1360   90.7090   15.5606 C.3     1  UNL1        0.1622
      8 C          63.2789   89.8123   14.3666 C.3     1  UNL1        0.1097
      9 C          63.6676   85.9489   13.5457 C.ar    1  UNL1        0.0738
     10 C          64.4002   85.4006   14.7342 C.ar    1  UNL1        0.0061
     11 C          64.5232   83.9174   14.9207 C.ar    1  UNL1        0.0011
     12 C          63.9136   82.9824   13.9187 C.ar    1  UNL1        0.0130
     13 C          63.1810   83.5307   12.7301 C.ar    1  UNL1        0.0771
     14 CL         62.5714   82.5956   11.7280 Cl      1  UNL1       -0.0806
     15 C          63.0580   85.0139   12.5436 C.ar    1  UNL1        0.1177
     16 N          62.3254   85.5622   11.3551 N.ar    1  UNL1       -0.1468
     17 N          61.0594   86.3658   11.3934 N.ar    1  UNL1       -0.1447
     18 C          60.6817   86.7034    9.9815 C.ar    1  UNL1        0.1446
     19 C          61.7143   86.1085    9.0706 C.ar    1  UNL1        0.1446
     20 N          62.7301   85.4032    9.9195 N.ar    1  UNL1       -0.1447
     21 C          63.2987   90.3988   12.9862 C.3     1  UNL1        0.0510
     22 C          64.4158   91.3115   12.5751 C.ar    1  UNL1        0.0086
     23 C          65.4910   91.6705   13.5574 C.ar    1  UNL1        0.0189
     24 C          66.6082   92.5832   13.1463 C.ar    1  UNL1        0.1027
     25 C          66.6501   93.1369   11.7529 C.ar    1  UNL1        0.0232
     26 C          65.5748   92.7778   10.7705 C.ar    1  UNL1        0.0309
     27 C          64.4577   91.8652   11.1817 C.ar    1  UNL1        0.1363
     28 F          63.3825   91.5062   10.1993 F       1  UNL1       -0.2045
     29 N          67.6834   92.9422   14.1287 N.ar    1  UNL1       -0.1478
     30 N          69.0952   92.4356   14.1147 N.ar    1  UNL1       -0.1447
     31 C          69.8199   93.0511   15.2749 C.ar    1  UNL1        0.1446
     32 C          68.8560   93.9381   16.0058 C.ar    1  UNL1        0.1446
     33 N          67.5356   93.8708   15.2974 N.ar    1  UNL1       -0.1447
@<TRIPOS>BOND
     1     1     2    2
     2     2     9    1
     3     9    10   ar
     4    10    11   ar
     5    11    12   ar
     6    12    13   ar
     7    13    14    1
     8    13    15   ar
     9    15    16    1
    10    16    17   ar
    11    17    18   ar
    12    18    19   ar
    13    19    20   ar
    14     2     3   am
    15     3     4    1
    16     4     5    1
    17     5     6    1
    18     6     7    1
    19     7     8    1
    20     8    21    1
    21    21    22    1
    22    22    23   ar
    23    23    24   ar
    24    24    29    1
    25    29    30   ar
    26    30    31   ar
    27    31    32   ar
    28    32    33   ar
    29    24    25   ar
    30    25    26   ar
    31    26    27   ar
    32    27    28    1
    33    15     9   ar
    34    20    16   ar
    35     8     3    1
    36    27    22   ar
    37    33    29   ar
@<TRIPOS>MOLECULE
*****
 33 37 0 0 0
SMALL
GASTEIGER

@<TRIPOS>ATOM
      1 O          63.4764   91.3116   12.1651 O.2     1  UNL1       -0.2698
      2 C          64.0307   90.5882   13.3565 C.2     1  UNL1        0.2507
      3 N          63.9079   89.0964   13.4521 N.am    1  UNL1       -0.2723
      4 C          64.4623   88.3730   14.6435 C.3     1  UNL1        0.1257
      5 C          64.3394   86.8810   14.7391 C.3     1  UNL1        0.1637
      6 O          63.6623   86.1125   13.6432 O.3     1  UNL1       -0.3502
      7 C          63.1080   86.8359   12.4518 C.3     1  UNL1        0.1622
      8 C          63.2308   88.3278   12.3562 C.3     1  UNL1        0.1097
      9 C          64.7079   91.3568   14.4524 C.ar    1  UNL1        0.0738
     10 C          64.1895   91.2738   15.8575 C.ar    1  UNL1        0.0061
     11 C          64.8666   92.0423   16.9533 C.ar    1  UNL1        0.0011
     12 C          66.0620   92.8939   16.6440 C.ar    1  UNL1        0.0130
     13 C          66.5804   92.9769   15.2389 C.ar    1  UNL1        0.0771
     14 CL         67.7759   93.8285   14.9296 Cl      1  UNL1       -0.0806
     15 C          65.9033   92.2084   14.1431 C.ar    1  UNL1        0.1177
     16 N          66.4217   92.2914   12.7379 N.ar    1  UNL1       -0.1468
     17 N          67.7313   91.7486   12.2478 N.ar    1  UNL1       -0.1447
     18 C          67.8405   92.0535   10.7831 C.ar    1  UNL1        0.1446
     19 C          66.5983   92.7848   10.3681 C.ar    1  UNL1        0.1446
     20 N          65.7215   92.9318   11.5762 N.ar    1  UNL1       -0.1447
     21 C          62.6765   89.0512   11.1648 C.3     1  UNL1        0.0510
     22 C          61.6308   88.3980   10.3105 C.ar    1  UNL1        0.0086
     23 C          62.0250   87.3505    9.3120 C.ar    1  UNL1        0.0189
     24 C          60.9793   86.6973    8.4577 C.ar    1  UNL1        0.1027
     25 C          59.5393   87.0917    8.6019 C.ar    1  UNL1        0.0232
     26 C          59.1450   88.1393    9.6005 C.ar    1  UNL1        0.0309
     27 C          60.1908   88.7924   10.4548 C.ar    1  UNL1        0.1363
     28 F          59.7965   89.8400   11.4533 F       1  UNL1       -0.2045
     29 N          61.3736   85.6497    7.4592 N.ar    1  UNL1       -0.1478
     30 N          60.4396   84.8824    6.5709 N.ar    1  UNL1       -0.1447
     31 C          61.2599   83.9440    5.7363 C.ar    1  UNL1        0.1446
     32 C          62.7008   84.1312    6.1088 C.ar    1  UNL1        0.1446
     33 N          62.7711   85.1854    7.1735 N.ar    1  UNL1       -0.1447
@<TRIPOS>BOND
     1     1     2    2
     2     2     9    1
     3     9    10   ar
     4    10    11   ar
     5    11    12   ar
     6    12    13   ar
     7    13    14    1
     8    13    15   ar
     9    15    16    1
    10    16    17   ar
    11    17    18   ar
    12    18    19   ar
    13    19    20   ar
    14     2     3   am
    15     3     4    1
    16     4     5    1
    17     5     6    1
    18     6     7    1
    19     7     8    1
    20     8    21    1
    21    21    22    1
    22    22    23   ar
    23    23    24   ar
    24    24    29    1
    25    29    30   ar
    26    30    31   ar
    27    31    32   ar
    28    32    33   ar
    29    24    25   ar
    30    25    26   ar
    31    26    27   ar
    32    27    28    1
    33    15     9   ar
    34    20    16   ar
    35     8     3    1
    36    27    22   ar
    37    33    29   ar
@<TRIPOS>MOLECULE
*****
 33 37 0 0 0
SMALL
GASTEIGER

@<TRIPOS>ATOM
      1 O          62.5512   90.1746   11.5649 O.2     1  UNL1       -0.2698
      2 C          62.6870   88.6814   11.6106 C.2     1  UNL1        0.2507
      3 N          63.3617   88.0250   12.7784 N.am    1  UNL1       -0.2723
      4 C          63.4974   86.5319   12.8240 C.3     1  UNL1        0.1257
      5 C          64.1722   85.8755   13.9919 C.3     1  UNL1        0.1637
      6 O          64.7112   86.7122   15.1141 O.3     1  UNL1       -0.3502
      7 C          64.5754   88.2053   15.0684 C.3     1  UNL1        0.1622
      8 C          63.9007   88.8618   13.9006 C.3     1  UNL1        0.1097
      9 C          62.1480   87.8447   10.4883 C.ar    1  UNL1        0.0738
     10 C          63.0500   86.8889    9.7652 C.ar    1  UNL1        0.0061
     11 C          62.5111   86.0522    8.6430 C.ar    1  UNL1        0.0011
     12 C          61.0701   86.1713    8.2439 C.ar    1  UNL1        0.0130
     13 C          60.1680   87.1270    8.9669 C.ar    1  UNL1        0.0771
     14 CL         58.7270   87.2461    8.5677 Cl      1  UNL1       -0.0806
     15 C          60.7070   87.9637   10.0891 C.ar    1  UNL1        0.1177
     16 N          59.8049   88.9195   10.8122 N.ar    1  UNL1       -0.1468
     17 N          58.9728   88.6044   12.0198 N.ar    1  UNL1       -0.1447
     18 C          58.2302   89.8483   12.4086 C.ar    1  UNL1        0.1446
     19 C          58.6034   90.9323   11.4413 C.ar    1  UNL1        0.1446
     20 N          59.5766   90.3583   10.4547 N.ar    1  UNL1       -0.1447
     21 C          63.7650   90.3549   13.8550 C.3     1  UNL1        0.0510
     22 C          64.9907   91.2192   13.8346 C.ar    1  UNL1        0.0086
     23 C          65.6278   91.5864   12.5273 C.ar    1  UNL1        0.0189
     24 C          66.8536   92.4507   12.5068 C.ar    1  UNL1        0.1027
     25 C          67.4424   92.9477   13.7938 C.ar    1  UNL1        0.0232
     26 C          66.8052   92.5804   15.1013 C.ar    1  UNL1        0.0309
     27 C          65.5795   91.7162   15.1216 C.ar    1  UNL1        0.1363
     28 F          64.9424   91.3489   16.4290 F       1  UNL1       -0.2045
     29 N          67.4907   92.8180   11.1995 N.ar    1  UNL1       -0.1478
     30 N          68.4447   91.9678   10.4140 N.ar    1  UNL1       -0.1447
     31 C          68.8292   92.7242    9.1771 C.ar    1  UNL1        0.1446
     32 C          68.1128   94.0420    9.1981 C.ar    1  UNL1        0.1446
     33 N          67.2855   94.0999   10.4480 N.ar    1  UNL1       -0.1447
@<TRIPOS>BOND
     1     1     2    2
     2     2     9    1
     3     9    10   ar
     4    10    11   ar
     5    11    12   ar
     6    12    13   ar
     7    13    14    1
     8    13    15   ar
     9    15    16    1
    10    16    17   ar
    11    17    18   ar
    12    18    19   ar
    13    19    20   ar
    14     2     3   am
    15     3     4    1
    16     4     5    1
    17     5     6    1
    18     6     7    1
    19     7     8    1
    20     8    21    1
    21    21    22    1
    22    22    23   ar
    23    23    24   ar
    24    24    29    1
    25    29    30   ar
    26    30    31   ar
    27    31    32   ar
    28    32    33   ar
    29    24    25   ar
    30    25    26   ar
    31    26    27   ar
    32    27    28    1
    33    15     9   ar
    34    20    16   ar
    35     8     3    1
    36    27    22   ar
    37    33    29   ar
@<TRIPOS>MOLECULE
*****
 33 37 0 0 0
SMALL
GASTEIGER

@<TRIPOS>ATOM
      1 O          62.9446   87.8282   12.5673 O.2     1  UNL1       -0.2698
      2 C          62.7430   88.9923   11.6430 C.2     1  UNL1        0.2507
      3 N          61.7021   88.9228   10.5653 N.am    1  UNL1       -0.2723
      4 C          61.5005   90.0869    9.6411 C.3     1  UNL1        0.1257
      5 C          60.4595   90.0174    8.5633 C.3     1  UNL1        0.1637
      6 O          59.6202   88.7837    8.4097 O.3     1  UNL1       -0.3502
      7 C          59.8218   87.6196    9.3340 C.3     1  UNL1        0.1622
      8 C          60.8627   87.6891   10.4117 C.3     1  UNL1        0.1097
      9 C          63.5824   90.2260   11.7966 C.ar    1  UNL1        0.0738
     10 C          63.8753   91.0871   10.6038 C.ar    1  UNL1        0.0061
     11 C          64.7147   92.3207   10.7574 C.ar    1  UNL1        0.0011
     12 C          65.2611   92.6932   12.1037 C.ar    1  UNL1        0.0130
     13 C          64.9682   91.8321   13.2964 C.ar    1  UNL1        0.0771
     14 CL         65.5147   92.2047   14.6428 Cl      1  UNL1       -0.0806
     15 C          64.1288   90.5985   13.1429 C.ar    1  UNL1        0.1177
     16 N          63.8359   89.7374   14.3357 N.ar    1  UNL1       -0.1468
     17 N          62.8005   90.0092   15.3864 N.ar    1  UNL1       -0.1447
     18 C          62.8516   88.8931   16.3873 C.ar    1  UNL1        0.1446
     19 C          63.9187   87.9315   15.9552 C.ar    1  UNL1        0.1446
     20 N          64.5270   88.4534   14.6872 N.ar    1  UNL1       -0.1447
     21 C          61.0643   86.5250   11.3359 C.3     1  UNL1        0.0510
     22 C          61.9663   85.3959   10.9342 C.ar    1  UNL1        0.0086
     23 C          62.1012   84.1925   11.8194 C.ar    1  UNL1        0.0189
     24 C          63.0033   83.0633   11.4177 C.ar    1  UNL1        0.1027
     25 C          63.7703   83.1375   10.1308 C.ar    1  UNL1        0.0232
     26 C          63.6353   84.3410    9.2456 C.ar    1  UNL1        0.0309
     27 C          62.7333   85.4701    9.6473 C.ar    1  UNL1        0.1363
     28 F          62.5983   86.6735    8.7621 F       1  UNL1       -0.2045
     29 N          63.1383   81.8599   12.3029 N.ar    1  UNL1       -0.1478
     30 N          62.5221   80.5139   12.0610 N.ar    1  UNL1       -0.1447
     31 C          62.9161   79.6133   13.1940 C.ar    1  UNL1        0.1446
     32 C          63.7758   80.4028   14.1362 C.ar    1  UNL1        0.1446
     33 N          63.9131   81.7912   13.5855 N.ar    1  UNL1       -0.1447
@<TRIPOS>BOND
     1     1     2    2
     2     2     9    1
     3     9    10   ar
     4    10    11   ar
     5    11    12   ar
     6    12    13   ar
     7    13    14    1
     8    13    15   ar
     9    15    16    1
    10    16    17   ar
    11    17    18   ar
    12    18    19   ar
    13    19    20   ar
    14     2     3   am
    15     3     4    1
    16     4     5    1
    17     5     6    1
    18     6     7    1
    19     7     8    1
    20     8    21    1
    21    21    22    1
    22    22    23   ar
    23    23    24   ar
    24    24    29    1
    25    29    30   ar
    26    30    31   ar
    27    31    32   ar
    28    32    33   ar
    29    24    25   ar
    30    25    26   ar
    31    26    27   ar
    32    27    28    1
    33    15     9   ar
    34    20    16   ar
    35     8     3    1
    36    27    22   ar
    37    33    29   ar
@<TRIPOS>MOLECULE
*****
 33 37 0 0 0
SMALL
GASTEIGER

@<TRIPOS>ATOM
      1 O          63.1730   89.5269   10.8590 O.2     1  UNL1       -0.2698
      2 C          62.8311   88.0777   11.0408 C.2     1  UNL1        0.2507
      3 N          63.2243   87.3668   12.3017 N.am    1  UNL1       -0.2723
      4 C          62.8824   85.9177   12.4834 C.3     1  UNL1        0.1257
      5 C          63.2756   85.2068   13.7445 C.3     1  UNL1        0.1637
      6 O          64.0106   85.9450   14.8237 O.3     1  UNL1       -0.3502
      7 C          64.3524   87.3942   14.6419 C.3     1  UNL1        0.1622
      8 C          63.9593   88.1051   13.3810 C.3     1  UNL1        0.1097
      9 C          62.0961   87.3395    9.9615 C.ar    1  UNL1        0.0738
     10 C          62.8140   86.3201    9.1275 C.ar    1  UNL1        0.0061
     11 C          62.0790   85.5818    8.0483 C.ar    1  UNL1        0.0011
     12 C          60.6262   85.8630    7.8030 C.ar    1  UNL1        0.0130
     13 C          59.9083   86.8824    8.6370 C.ar    1  UNL1        0.0771
     14 CL         58.4554   87.1635    8.3917 Cl      1  UNL1       -0.0806
     15 C          60.6433   87.6206    9.7162 C.ar    1  UNL1        0.1177
     16 N          59.9254   88.6400   10.5502 N.ar    1  UNL1       -0.1468
     17 N          59.2291   88.3810   11.8532 N.ar    1  UNL1       -0.1447
     18 C          58.6511   89.6783   12.3359 C.ar    1  UNL1        0.1446
     19 C          58.9903   90.7391   11.3312 C.ar    1  UNL1        0.1446
     20 N          59.7778   90.0974   10.2275 N.ar    1  UNL1       -0.1447
     21 C          64.3012   89.5543   13.1992 C.3     1  UNL1        0.0510
     22 C          64.5668   90.4181   14.3964 C.ar    1  UNL1        0.0086
     23 C          65.8762   91.1382   14.5259 C.ar    1  UNL1        0.0189
     24 C          66.1419   92.0020   15.7231 C.ar    1  UNL1        0.1027
     25 C          65.0981   92.1457   16.7908 C.ar    1  UNL1        0.0232
     26 C          63.7887   91.4255   16.6612 C.ar    1  UNL1        0.0309
     27 C          63.5230   90.5617   15.4640 C.ar    1  UNL1        0.1363
     28 F          62.2136   89.8416   15.3345 F       1  UNL1       -0.2045
     29 N          67.4513   92.7221   15.8527 N.ar    1  UNL1       -0.1478
     30 N          67.6644   94.1989   15.6985 N.ar    1  UNL1       -0.1447
     31 C          69.1223   94.4814   15.9097 C.ar    1  UNL1        0.1446
     32 C          69.8104   93.1792   16.1943 C.ar    1  UNL1        0.1446
     33 N          68.7776   92.0919   16.1591 N.ar    1  UNL1       -0.1447
@<TRIPOS>BOND
     1     1     2    2
     2     2     9    1
     3     9    10   ar
     4    10    11   ar
     5    11    12   ar
     6    12    13   ar
     7    13    14    1
     8    13    15   ar
     9    15    16    1
    10    16    17   ar
    11    17    18   ar
    12    18    19   ar
    13    19    20   ar
    14     2     3   am
    15     3     4    1
    16     4     5    1
    17     5     6    1
    18     6     7    1
    19     7     8    1
    20     8    21    1
    21    21    22    1
    22    22    23   ar
    23    23    24   ar
    24    24    29    1
    25    29    30   ar
    26    30    31   ar
    27    31    32   ar
    28    32    33   ar
    29    24    25   ar
    30    25    26   ar
    31    26    27   ar
    32    27    28    1
    33    15     9   ar
    34    20    16   ar
    35     8     3    1
    36    27    22   ar
    37    33    29   ar
