@<TRIPOS>MOLECULE
*****
 39 43 0 0 0
SMALL
GASTEIGER

@<TRIPOS>ATOM
      1 C          63.9884   89.3369   13.9496 C.3     1  UNL1        0.1195
      2 C          65.0796   89.6552   14.9283 C.3     1  UNL1        0.0300
      3 C          65.9668   90.8434   14.7020 C.3     1  UNL1        0.0043
      4 C          65.7627   91.7132   13.4971 C.3     1  UNL1        0.0219
      5 C          66.4751   92.9415   13.0137 C.3     1  UNL1        0.0905
      6 N          65.8240   93.3823   11.7363 N.pl3   1  UNL1       -0.3106
      7 C          64.7094   92.4264   11.4302 C.3     1  UNL1        0.0909
      8 C          64.6715   91.3948   12.5184 C.3     1  UNL1        0.0278
      9 C          63.7843   90.2066   12.7447 C.3     1  UNL1        0.0512
     10 C          62.6930   89.8882   11.7660 C.ar    1  UNL1       -0.0200
     11 C          63.0297   89.6136   10.3304 C.ar    1  UNL1       -0.0019
     12 C          61.9384   89.2952    9.3518 C.ar    1  UNL1        0.0293
     13 C          60.5104   89.2515    9.8088 C.ar    1  UNL1        0.1401
     14 F          59.4192   88.9331    8.8302 F       1  UNL1       -0.2042
     15 C          60.1737   89.5261   11.2445 C.ar    1  UNL1        0.0293
     16 C          61.2649   89.8445   12.2231 C.ar    1  UNL1       -0.0019
     17 C          66.2184   94.5704   10.9100 C.2     1  UNL1        0.0281
     18 C          66.7996   94.5293    9.5277 C.2     1  UNL1        0.0475
     19 C          67.0413   95.9417    9.0843 C.2     1  UNL1        0.1744
     20 O          67.6141   96.3657    7.7644 O.2     1  UNL1       -0.2913
     21 C          66.6095   96.8558   10.1924 C.3     1  UNL1        0.0752
     22 C          66.1009   96.0083   11.3208 C.3     1  UNL1        0.0493
     23 O          63.1011   88.1487   14.1759 O.3     1  UNL1       -0.3540
     24 C          64.6394   86.3730   15.2850 C.3     1  UNL1        0.0370
     25 C          63.6871   86.7681   14.1955 C.3     1  UNL1        0.1374
     26 C          63.3209   85.7824   13.1257 C.ar    1  UNL1        0.0044
     27 C          63.4426   84.3107   13.3885 C.ar    1  UNL1        0.0019
     28 C          63.0764   83.3250   12.3187 C.ar    1  UNL1        0.0711
     29 C          62.5886   83.8111   10.9862 C.ar    1  UNL1        0.0077
     30 C          62.4670   85.2829   10.7234 C.ar    1  UNL1        0.0711
     31 C          62.8331   86.2685   11.7931 C.ar    1  UNL1        0.0019
     32 C          63.1981   81.8532   12.5815 C.3     1  UNL1        0.4186
     33 F          63.3197   80.3815   12.8443 F       1  UNL1       -0.1659
     34 F          61.7240   81.7792   12.8492 F       1  UNL1       -0.1659
     35 F          64.6721   81.9273   12.3138 F       1  UNL1       -0.1659
     36 C          61.9792   85.7690    9.3908 C.3     1  UNL1        0.4186
     37 F          61.4913   86.2553    8.0584 F       1  UNL1       -0.1659
     38 F          60.6500   86.1044    9.9998 F       1  UNL1       -0.1659
     39 F          63.3083   85.4337    8.7818 F       1  UNL1       -0.1659
@<TRIPOS>BOND
     1    25    24    1
     2    25    23    1
     3     1    23    1
     4     1     2    1
     5     2     3    1
     6     4     3    1
     7     4     5    1
     8     5     6    1
     9     6    17    1
    10    17    18    2
    11    18    19    1
    12    19    20    2
    13    19    21    1
    14    21    22    1
    15     6     7    1
    16     8     7    1
    17     8     9    1
    18     9    10    1
    19    10    11   ar
    20    11    12   ar
    21    12    13   ar
    22    13    14    1
    23    13    15   ar
    24    15    16   ar
    25    25    26    1
    26    26    27   ar
    27    27    28   ar
    28    28    32    1
    29    32    33    1
    30    32    34    1
    31    32    35    1
    32    28    29   ar
    33    29    30   ar
    34    30    36    1
    35    36    37    1
    36    36    38    1
    37    36    39    1
    38    30    31   ar
    39     9     1    1
    40    16    10   ar
    41    31    26   ar
    42     8     4    1
    43    22    17    1
@<TRIPOS>MOLECULE
*****
 39 43 0 0 0
SMALL
GASTEIGER

@<TRIPOS>ATOM
      1 C          63.5939   88.0729   13.5828 C.3     1  UNL1        0.1195
      2 C          64.4194   87.5317   14.7121 C.3     1  UNL1        0.0300
      3 C          64.6531   86.0546   14.8297 C.3     1  UNL1        0.0043
      4 C          64.0612   85.1189   13.8177 C.3     1  UNL1        0.0219
      5 C          64.1196   83.6268   13.6756 C.3     1  UNL1        0.0905
      6 N          63.3301   83.2459   12.4584 N.pl3   1  UNL1       -0.3106
      7 C          62.7838   84.5026   11.8482 C.3     1  UNL1        0.0909
      8 C          63.2356   85.6602   12.6883 C.3     1  UNL1        0.0278
      9 C          63.0020   87.1372   12.5709 C.3     1  UNL1        0.0512
     10 C          62.1765   87.6785   11.4415 C.ar    1  UNL1       -0.0200
     11 C          60.9734   86.9218   10.9621 C.ar    1  UNL1       -0.0019
     12 C          60.1479   87.4631    9.8327 C.ar    1  UNL1        0.0293
     13 C          60.5255   88.7612    9.1827 C.ar    1  UNL1        0.1401
     14 F          59.7000   89.3024    8.0533 F       1  UNL1       -0.2042
     15 C          61.7287   89.5179    9.6621 C.ar    1  UNL1        0.0293
     16 C          62.5542   88.9766   10.7914 C.ar    1  UNL1       -0.0019
     17 C          63.1232   81.8529   11.9420 C.2     1  UNL1        0.0281
     18 C          63.2295   81.4186   10.5101 C.2     1  UNL1        0.0475
     19 C          62.9457   79.9469   10.4499 C.2     1  UNL1        0.1744
     20 O          62.9439   79.0992    9.2124 O.2     1  UNL1       -0.2913
     21 C          62.6641   79.4716   11.8445 C.3     1  UNL1        0.0752
     22 C          62.7738   80.6496   12.7666 C.3     1  UNL1        0.0493
     23 O          63.3603   89.5500   13.4653 O.3     1  UNL1       -0.3540
     24 C          63.5306   90.5686   15.8492 C.3     1  UNL1        0.0370
     25 C          64.0150   90.4920   14.4317 C.3     1  UNL1        0.1374
     26 C          65.1541   91.3576   13.9806 C.ar    1  UNL1        0.0044
     27 C          65.2194   91.8301   12.5585 C.ar    1  UNL1        0.0019
     28 C          66.3585   92.6956   12.1073 C.ar    1  UNL1        0.0711
     29 C          67.4321   93.0885   13.0783 C.ar    1  UNL1        0.0077
     30 C          67.3668   92.6160   14.5004 C.ar    1  UNL1        0.0711
     31 C          66.2277   91.7505   14.9516 C.ar    1  UNL1        0.0019
     32 C          66.4238   93.1681   10.6852 C.3     1  UNL1        0.4186
     33 F          66.4892   93.6406    9.2631 F       1  UNL1       -0.1659
     34 F          67.4649   92.1299   10.3881 F       1  UNL1       -0.1659
     35 F          65.3827   94.2063   10.9823 F       1  UNL1       -0.1659
     36 C          68.4404   93.0089   15.4714 C.3     1  UNL1        0.4186
     37 F          69.5139   93.4019   16.4425 F       1  UNL1       -0.1659
     38 F          67.3955   93.5086   16.4245 F       1  UNL1       -0.1659
     39 F          69.4854   92.5093   14.5184 F       1  UNL1       -0.1659
@<TRIPOS>BOND
     1    25    24    1
     2    25    23    1
     3     1    23    1
     4     1     2    1
     5     2     3    1
     6     4     3    1
     7     4     5    1
     8     5     6    1
     9     6    17    1
    10    17    18    2
    11    18    19    1
    12    19    20    2
    13    19    21    1
    14    21    22    1
    15     6     7    1
    16     8     7    1
    17     8     9    1
    18     9    10    1
    19    10    11   ar
    20    11    12   ar
    21    12    13   ar
    22    13    14    1
    23    13    15   ar
    24    15    16   ar
    25    25    26    1
    26    26    27   ar
    27    27    28   ar
    28    28    32    1
    29    32    33    1
    30    32    34    1
    31    32    35    1
    32    28    29   ar
    33    29    30   ar
    34    30    36    1
    35    36    37    1
    36    36    38    1
    37    36    39    1
    38    30    31   ar
    39     9     1    1
    40    16    10   ar
    41    31    26   ar
    42     8     4    1
    43    22    17    1
@<TRIPOS>MOLECULE
*****
 39 43 0 0 0
SMALL
GASTEIGER

@<TRIPOS>ATOM
      1 C          63.5911   88.0799   13.5760 C.3     1  UNL1        0.1195
      2 C          64.4082   87.5387   14.7114 C.3     1  UNL1        0.0300
      3 C          64.6371   86.0612   14.8334 C.3     1  UNL1        0.0043
      4 C          64.0486   85.1250   13.8199 C.3     1  UNL1        0.0219
      5 C          64.1037   83.6325   13.6812 C.3     1  UNL1        0.0905
      6 N          63.3205   83.2512   12.4601 N.pl3   1  UNL1       -0.3106
      7 C          62.7814   84.5081   11.8440 C.3     1  UNL1        0.0909
      8 C          63.2314   85.6662   12.6844 C.3     1  UNL1        0.0278
      9 C          63.0026   87.1437   12.5625 C.3     1  UNL1        0.0512
     10 C          62.1854   87.6849   11.4270 C.ar    1  UNL1       -0.0200
     11 C          60.9857   86.9282   10.9390 C.ar    1  UNL1       -0.0019
     12 C          60.1685   87.4695    9.8036 C.ar    1  UNL1        0.0293
     13 C          60.5510   88.7674    9.1561 C.ar    1  UNL1        0.1401
     14 F          59.7339   89.3086    8.0207 F       1  UNL1       -0.2042
     15 C          61.7508   89.5240    9.6441 C.ar    1  UNL1        0.0293
     16 C          62.5680   88.9828   10.7795 C.ar    1  UNL1       -0.0019
     17 C          63.1128   81.8577   11.9453 C.2     1  UNL1        0.0281
     18 C          63.2244   81.4205   10.5148 C.2     1  UNL1        0.0475
     19 C          62.9377   79.9493   10.4560 C.2     1  UNL1        0.1744
     20 O          62.9394   79.0994    9.2201 O.2     1  UNL1       -0.2913
     21 C          62.6489   79.4773   11.8502 C.3     1  UNL1        0.0752
     22 C          62.7572   80.6568   12.7707 C.3     1  UNL1        0.0493
     23 O          63.3622   89.5573   13.4540 O.3     1  UNL1       -0.3540
     24 C          63.5229   90.5890   15.8330 C.3     1  UNL1        0.0370
     25 C          64.0173   90.4999   14.4196 C.3     1  UNL1        0.1374
     26 C          65.1667   91.3535   13.9719 C.ar    1  UNL1        0.0044
     27 C          66.2316   91.7507   14.9508 C.ar    1  UNL1        0.0019
     28 C          67.3810   92.6042   14.5032 C.ar    1  UNL1        0.0711
     29 C          67.4655   93.0605   13.0768 C.ar    1  UNL1        0.0077
     30 C          66.4006   92.6633   12.0980 C.ar    1  UNL1        0.0711
     31 C          65.2512   91.8098   12.5456 C.ar    1  UNL1        0.0019
     32 C          68.4460   93.0014   15.4820 C.3     1  UNL1        0.4186
     33 F          69.5109   93.3987   16.4608 F       1  UNL1       -0.1659
     34 F          67.3940   93.5258   16.4138 F       1  UNL1       -0.1659
     35 F          69.4980   92.4771   14.5502 F       1  UNL1       -0.1659
     36 C          66.4850   93.1196   10.6716 C.3     1  UNL1        0.4186
     37 F          66.5693   93.5759    9.2452 F       1  UNL1       -0.1659
     38 F          65.3914   94.1144   10.9251 F       1  UNL1       -0.1659
     39 F          67.5786   92.1248   10.4180 F       1  UNL1       -0.1659
@<TRIPOS>BOND
     1    25    24    1
     2    25    23    1
     3     1    23    1
     4     1     2    1
     5     2     3    1
     6     4     3    1
     7     4     5    1
     8     5     6    1
     9     6    17    1
    10    17    18    2
    11    18    19    1
    12    19    20    2
    13    19    21    1
    14    21    22    1
    15     6     7    1
    16     8     7    1
    17     8     9    1
    18     9    10    1
    19    10    11   ar
    20    11    12   ar
    21    12    13   ar
    22    13    14    1
    23    13    15   ar
    24    15    16   ar
    25    25    26    1
    26    26    27   ar
    27    27    28   ar
    28    28    32    1
    29    32    33    1
    30    32    34    1
    31    32    35    1
    32    28    29   ar
    33    29    30   ar
    34    30    36    1
    35    36    37    1
    36    36    38    1
    37    36    39    1
    38    30    31   ar
    39     9     1    1
    40    16    10   ar
    41    31    26   ar
    42     8     4    1
    43    22    17    1
@<TRIPOS>MOLECULE
*****
 39 43 0 0 0
SMALL
GASTEIGER

@<TRIPOS>ATOM
      1 C          63.1663   88.8439   12.9346 C.3     1  UNL1        0.1195
      2 C          64.0830   88.5979   14.0960 C.3     1  UNL1        0.0300
      3 C          64.4251   87.1935   14.4972 C.3     1  UNL1        0.0043
      4 C          63.8505   86.0353   13.7368 C.3     1  UNL1        0.0219
      5 C          64.0061   84.5522   13.8984 C.3     1  UNL1        0.0905
      6 N          63.1855   83.8816   12.8369 N.pl3   1  UNL1       -0.3106
      7 C          62.5227   84.9503   12.0191 C.3     1  UNL1        0.0909
      8 C          62.9337   86.2813   12.5753 C.3     1  UNL1        0.0278
      9 C          62.5916   87.6857   12.1742 C.3     1  UNL1        0.0512
     10 C          61.6748   87.9317   11.0128 C.ar    1  UNL1       -0.0200
     11 C          60.4632   88.7992   11.1843 C.ar    1  UNL1       -0.0019
     12 C          59.5465   89.0452   10.0227 C.ar    1  UNL1        0.0293
     13 C          59.8413   88.4238    8.6898 C.ar    1  UNL1        0.1401
     14 F          58.9246   88.6698    7.5284 F       1  UNL1       -0.2042
     15 C          61.0530   87.5562    8.5183 C.ar    1  UNL1        0.0293
     16 C          61.9697   87.3102    9.6797 C.ar    1  UNL1       -0.0019
     17 C          63.0512   82.4021   12.6294 C.2     1  UNL1        0.0281
     18 C          63.0506   81.6937   11.3072 C.2     1  UNL1        0.0475
     19 C          62.8930   80.2250   11.5684 C.2     1  UNL1        0.1744
     20 O          62.8413   79.1452   10.5285 O.2     1  UNL1       -0.2913
     21 C          62.7961   80.0257   13.0519 C.3     1  UNL1        0.0752
     22 C          62.8939   81.3713   13.7077 C.3     1  UNL1        0.0493
     23 O          62.8241   90.2482   12.5335 O.3     1  UNL1       -0.3540
     24 C          63.1482   90.7817   10.0115 C.3     1  UNL1        0.0370
     25 C          63.5933   90.9234   11.4369 C.3     1  UNL1        0.1374
     26 C          64.8076   91.7405   11.7657 C.ar    1  UNL1        0.0044
     27 C          65.4869   92.5393   10.6931 C.ar    1  UNL1        0.0019
     28 C          66.7011   93.3564   11.0218 C.ar    1  UNL1        0.0711
     29 C          67.2361   93.3745   12.4230 C.ar    1  UNL1        0.0077
     30 C          66.5568   92.5756   13.4956 C.ar    1  UNL1        0.0711
     31 C          65.3426   91.7586   13.1669 C.ar    1  UNL1        0.0019
     32 C          67.3804   94.1552    9.9493 C.3     1  UNL1        0.4186
     33 F          68.0597   94.9541    8.8767 F       1  UNL1       -0.1659
     34 F          67.7396   92.8875    9.2325 F       1  UNL1       -0.1659
     35 F          67.0213   95.4230   10.6661 F       1  UNL1       -0.1659
     36 C          67.0918   92.5937   14.8968 C.3     1  UNL1        0.4186
     37 F          67.6267   92.6118   16.2980 F       1  UNL1       -0.1659
     38 F          67.0749   91.0941   14.9226 F       1  UNL1       -0.1659
     39 F          67.1086   94.0934   14.8711 F       1  UNL1       -0.1659
@<TRIPOS>BOND
     1    25    24    1
     2    25    23    1
     3     1    23    1
     4     1     2    1
     5     2     3    1
     6     4     3    1
     7     4     5    1
     8     5     6    1
     9     6    17    1
    10    17    18    2
    11    18    19    1
    12    19    20    2
    13    19    21    1
    14    21    22    1
    15     6     7    1
    16     8     7    1
    17     8     9    1
    18     9    10    1
    19    10    11   ar
    20    11    12   ar
    21    12    13   ar
    22    13    14    1
    23    13    15   ar
    24    15    16   ar
    25    25    26    1
    26    26    27   ar
    27    27    28   ar
    28    28    32    1
    29    32    33    1
    30    32    34    1
    31    32    35    1
    32    28    29   ar
    33    29    30   ar
    34    30    36    1
    35    36    37    1
    36    36    38    1
    37    36    39    1
    38    30    31   ar
    39     9     1    1
    40    16    10   ar
    41    31    26   ar
    42     8     4    1
    43    22    17    1
@<TRIPOS>MOLECULE
*****
 39 43 0 0 0
SMALL
GASTEIGER

@<TRIPOS>ATOM
      1 C          62.7494   89.4752   12.1215 C.3     1  UNL1        0.1195
      2 C          62.8645   90.4631   10.9987 C.3     1  UNL1        0.0300
      3 C          63.9137   91.5341   11.0465 C.3     1  UNL1        0.0043
      4 C          64.8478   91.6171   12.2171 C.3     1  UNL1        0.0219
      5 C          65.9724   92.5560   12.5392 C.3     1  UNL1        0.0905
      6 N          66.5523   92.1484   13.8611 N.pl3   1  UNL1       -0.3106
      7 C          65.7862   90.9575   14.3560 C.3     1  UNL1        0.0909
      8 C          64.7327   90.6292   13.3400 C.3     1  UNL1        0.0278
      9 C          63.6835   89.5582   13.2922 C.3     1  UNL1        0.0512
     10 C          63.5685   88.5703   14.4150 C.ar    1  UNL1       -0.0200
     11 C          63.0316   89.0067   15.7459 C.ar    1  UNL1       -0.0019
     12 C          62.9166   88.0187   16.8687 C.ar    1  UNL1        0.0293
     13 C          63.3383   86.5944   16.6607 C.ar    1  UNL1        0.1401
     14 F          63.2233   85.6065   17.7834 F       1  UNL1       -0.2042
     15 C          63.8752   86.1580   15.3297 C.ar    1  UNL1        0.0293
     16 C          63.9903   87.1459   14.2069 C.ar    1  UNL1       -0.0019
     17 C          67.6974   92.8146   14.5646 C.2     1  UNL1        0.0281
     18 C          67.6193   94.0687   15.3838 C.2     1  UNL1        0.0475
     19 C          68.9952   94.3729   15.8980 C.2     1  UNL1        0.1744
     20 O          69.3759   95.5385   16.7619 O.2     1  UNL1       -0.2913
     21 C          69.9237   93.3068   15.3965 C.3     1  UNL1        0.0752
     22 C          69.1215   92.3437   14.5724 C.3     1  UNL1        0.0493
     23 O          61.7002   88.4042   12.0737 O.3     1  UNL1       -0.3540
     24 C          60.1202   88.6214   10.0228 C.3     1  UNL1        0.0370
     25 C          61.2102   87.8928   10.7514 C.3     1  UNL1        0.1374
     26 C          61.8103   86.6529   10.1577 C.ar    1  UNL1        0.0044
     27 C          62.6185   85.7257   11.0163 C.ar    1  UNL1        0.0019
     28 C          63.2186   84.4857   10.4227 C.ar    1  UNL1        0.0711
     29 C          63.0105   84.1729    8.9705 C.ar    1  UNL1        0.0077
     30 C          62.2023   85.1001    8.1120 C.ar    1  UNL1        0.0711
     31 C          61.6022   86.3401    8.7056 C.ar    1  UNL1        0.0019
     32 C          64.0268   83.5585   11.2812 C.3     1  UNL1        0.4186
     33 F          64.8350   82.6314   12.1398 F       1  UNL1       -0.1659
     34 F          64.7146   83.0264   10.0591 F       1  UNL1       -0.1659
     35 F          63.3390   84.0907   12.5034 F       1  UNL1       -0.1659
     36 C          61.9941   84.7874    6.6598 C.3     1  UNL1        0.4186
     37 F          61.7859   84.4747    5.2076 F       1  UNL1       -0.1659
     38 F          60.5240   85.0409    6.8159 F       1  UNL1       -0.1659
     39 F          63.4643   84.5338    6.5036 F       1  UNL1       -0.1659
@<TRIPOS>BOND
     1    25    24    1
     2    25    23    1
     3     1    23    1
     4     1     2    1
     5     2     3    1
     6     4     3    1
     7     4     5    1
     8     5     6    1
     9     6    17    1
    10    17    18    2
    11    18    19    1
    12    19    20    2
    13    19    21    1
    14    21    22    1
    15     6     7    1
    16     8     7    1
    17     8     9    1
    18     9    10    1
    19    10    11   ar
    20    11    12   ar
    21    12    13   ar
    22    13    14    1
    23    13    15   ar
    24    15    16   ar
    25    25    26    1
    26    26    27   ar
    27    27    28   ar
    28    28    32    1
    29    32    33    1
    30    32    34    1
    31    32    35    1
    32    28    29   ar
    33    29    30   ar
    34    30    36    1
    35    36    37    1
    36    36    38    1
    37    36    39    1
    38    30    31   ar
    39     9     1    1
    40    16    10   ar
    41    31    26   ar
    42     8     4    1
    43    22    17    1
@<TRIPOS>MOLECULE
*****
 39 43 0 0 0
SMALL
GASTEIGER

@<TRIPOS>ATOM
      1 C          62.7453   89.4578   12.1218 C.3     1  UNL1        0.1195
      2 C          62.8575   90.4448   10.9980 C.3     1  UNL1        0.0300
      3 C          63.9041   91.5185   11.0444 C.3     1  UNL1        0.0043
      4 C          64.8383   91.6050   12.2147 C.3     1  UNL1        0.0219
      5 C          65.9606   92.5471   12.5356 C.3     1  UNL1        0.0905
      6 N          66.5420   92.1422   13.8577 N.pl3   1  UNL1       -0.3106
      7 C          65.7790   90.9499   14.3540 C.3     1  UNL1        0.0909
      8 C          64.7261   90.6179   13.3386 C.3     1  UNL1        0.0278
      9 C          63.6796   89.5443   13.2921 C.3     1  UNL1        0.0512
     10 C          63.5673   88.5572   14.4159 C.ar    1  UNL1       -0.0200
     11 C          63.0244   88.9922   15.7448 C.ar    1  UNL1       -0.0019
     12 C          62.9122   88.0050   16.8686 C.ar    1  UNL1        0.0293
     13 C          63.3428   86.5829   16.6636 C.ar    1  UNL1        0.1401
     14 F          63.2306   85.5958   17.7873 F       1  UNL1       -0.2042
     15 C          63.8858   86.1479   15.3346 C.ar    1  UNL1        0.0293
     16 C          63.9980   87.1350   14.2108 C.ar    1  UNL1       -0.0019
     17 C          67.6856   92.8120   14.5602 C.2     1  UNL1        0.0281
     18 C          67.6071   94.0743   15.3668 C.2     1  UNL1        0.0475
     19 C          68.9814   94.3796   15.8846 C.2     1  UNL1        0.1744
     20 O          69.3613   95.5525   16.7390 O.2     1  UNL1       -0.2913
     21 C          69.9093   93.3060   15.3981 C.3     1  UNL1        0.0752
     22 C          69.1083   92.3372   14.5795 C.3     1  UNL1        0.0493
     23 O          61.6988   88.3841   12.0753 O.3     1  UNL1       -0.3540
     24 C          60.1077   88.5960   10.0324 C.3     1  UNL1        0.0370
     25 C          61.2066   87.8733   10.7537 C.3     1  UNL1        0.1374
     26 C          61.8132   86.6398   10.1532 C.ar    1  UNL1        0.0044
     27 C          61.6075   86.3346    8.6990 C.ar    1  UNL1        0.0019
     28 C          62.2141   85.1011    8.0985 C.ar    1  UNL1        0.0711
     29 C          63.0263   84.1728    8.9521 C.ar    1  UNL1        0.0077
     30 C          63.2319   84.4780   10.4062 C.ar    1  UNL1        0.0711
     31 C          62.6254   85.7115   11.0068 C.ar    1  UNL1        0.0019
     32 C          62.0084   84.7959    6.6443 C.3     1  UNL1        0.4186
     33 F          61.8028   84.4907    5.1902 F       1  UNL1       -0.1659
     34 F          60.5379   85.0474    6.7995 F       1  UNL1       -0.1659
     35 F          63.4790   84.5444    6.4892 F       1  UNL1       -0.1659
     36 C          64.0441   83.5498   11.2599 C.3     1  UNL1        0.4186
     37 F          64.8563   82.6216   12.1135 F       1  UNL1       -0.1659
     38 F          64.7026   82.9961   10.0312 F       1  UNL1       -0.1659
     39 F          63.3856   84.1035   12.4886 F       1  UNL1       -0.1659
@<TRIPOS>BOND
     1    25    24    1
     2    25    23    1
     3     1    23    1
     4     1     2    1
     5     2     3    1
     6     4     3    1
     7     4     5    1
     8     5     6    1
     9     6    17    1
    10    17    18    2
    11    18    19    1
    12    19    20    2
    13    19    21    1
    14    21    22    1
    15     6     7    1
    16     8     7    1
    17     8     9    1
    18     9    10    1
    19    10    11   ar
    20    11    12   ar
    21    12    13   ar
    22    13    14    1
    23    13    15   ar
    24    15    16   ar
    25    25    26    1
    26    26    27   ar
    27    27    28   ar
    28    28    32    1
    29    32    33    1
    30    32    34    1
    31    32    35    1
    32    28    29   ar
    33    29    30   ar
    34    30    36    1
    35    36    37    1
    36    36    38    1
    37    36    39    1
    38    30    31   ar
    39     9     1    1
    40    16    10   ar
    41    31    26   ar
    42     8     4    1
    43    22    17    1
