@<TRIPOS>MOLECULE
*****
 15 16 0 0 0
SMALL
GASTEIGER

@<TRIPOS>ATOM
      1 C          67.1590   92.1993   15.2767 C.3     1  UNL1        0.0345
      2 C          65.9615   91.7573   14.4888 C.2     1  UNL1        0.0202
      3 C          64.8606   90.9932   15.1627 C.2     1  UNL1        0.0410
      4 C          63.6632   90.5513   14.3749 C.2     1  UNL1        0.1984
      5 O          62.5623   89.7872   15.0488 O.2     1  UNL1       -0.2865
      6 C          63.5666   90.8733   12.9130 C.ar    1  UNL1        0.0756
      7 C          62.3692   90.4314   12.1251 C.ar    1  UNL1        0.1368
      8 O          61.2683   89.6673   12.7990 O.3     1  UNL1       -0.5054
      9 C          62.2727   90.7534   10.6633 C.ar    1  UNL1        0.0367
     10 C          63.3736   91.5175    9.9894 C.ar    1  UNL1        0.0032
     11 C          64.5710   91.9595   10.7773 C.ar    1  UNL1        0.0035
     12 C          64.6675   91.6374   12.2390 C.ar    1  UNL1        0.0446
     13 C          65.8650   92.0794   13.0270 C.2     1  UNL1        0.1919
     14 O          66.9659   92.8435   12.3531 O.2     1  UNL1       -0.2869
     15 H          61.3286   89.4661   13.7122 H       1  UNL1        0.2922
@<TRIPOS>BOND
     1     1     2    1
     2     2     3    2
     3     3     4    1
     4     4     5    2
     5     4     6    1
     6     6     7   ar
     7     7     8    1
     8     7     9   ar
     9     9    10   ar
    10    10    11   ar
    11    11    12   ar
    12    12    13    1
    13    13    14    2
    14    13     2    1
    15    12     6   ar
    16     8    15    1
@<TRIPOS>MOLECULE
*****
 15 16 0 0 0
SMALL
GASTEIGER

@<TRIPOS>ATOM
      1 C          59.7539   86.3501    8.0961 C.3     1  UNL1        0.0345
      2 C          60.6235   86.9276    9.1734 C.2     1  UNL1        0.0202
      3 C          61.2254   86.0296   10.2133 C.2     1  UNL1        0.0410
      4 C          62.0949   86.6070   11.2905 C.2     1  UNL1        0.1984
      5 O          62.6968   85.7090   12.3303 O.2     1  UNL1       -0.2865
      6 C          62.3625   88.0825   11.3280 C.ar    1  UNL1        0.0756
      7 C          63.2320   88.6599   12.4053 C.ar    1  UNL1        0.1368
      8 O          63.8339   87.7619   13.4451 O.3     1  UNL1       -0.5054
      9 C          63.4995   90.1354   12.4427 C.ar    1  UNL1        0.0367
     10 C          62.8976   91.0334   11.4029 C.ar    1  UNL1        0.0032
     11 C          62.0281   90.4560   10.3256 C.ar    1  UNL1        0.0035
     12 C          61.7605   88.9805   10.2882 C.ar    1  UNL1        0.0446
     13 C          60.8910   88.4031    9.2109 C.2     1  UNL1        0.1919
     14 O          60.2891   89.3011    8.1711 O.2     1  UNL1       -0.2869
     15 H          63.6668   86.8402   13.4217 H       1  UNL1        0.2922
@<TRIPOS>BOND
     1     1     2    1
     2     2     3    2
     3     3     4    1
     4     4     5    2
     5     4     6    1
     6     6     7   ar
     7     7     8    1
     8     7     9   ar
     9     9    10   ar
    10    10    11   ar
    11    11    12   ar
    12    12    13    1
    13    13    14    2
    14    13     2    1
    15    12     6   ar
    16     8    15    1
@<TRIPOS>MOLECULE
*****
 15 16 0 0 0
SMALL
GASTEIGER

@<TRIPOS>ATOM
      1 C          62.0658   89.5031   10.7430 C.3     1  UNL1        0.0345
      2 C          63.1079   90.4183   11.3147 C.2     1  UNL1        0.0202
      3 C          63.7626   91.4475   10.4418 C.2     1  UNL1        0.0410
      4 C          64.8045   92.3626   11.0134 C.2     1  UNL1        0.1984
      5 O          65.4592   93.3918   10.1405 O.2     1  UNL1       -0.2865
      6 C          65.1919   92.2485   12.4581 C.ar    1  UNL1        0.0756
      7 C          66.2338   93.1636   13.0298 C.ar    1  UNL1        0.1368
      8 O          66.8885   94.1928   12.1568 O.3     1  UNL1       -0.5054
      9 C          66.6211   93.0495   14.4744 C.ar    1  UNL1        0.0367
     10 C          65.9664   92.0202   15.3473 C.ar    1  UNL1        0.0032
     11 C          64.9244   91.1051   14.7757 C.ar    1  UNL1        0.0035
     12 C          64.5372   91.2193   13.3311 C.ar    1  UNL1        0.0446
     13 C          63.4951   90.3041   12.7593 C.2     1  UNL1        0.1919
     14 O          62.8404   89.2749   13.6323 O.2     1  UNL1       -0.2869
     15 H          66.6466   94.2641   11.2544 H       1  UNL1        0.2922
@<TRIPOS>BOND
     1     1     2    1
     2     2     3    2
     3     3     4    1
     4     4     5    2
     5     4     6    1
     6     6     7   ar
     7     7     8    1
     8     7     9   ar
     9     9    10   ar
    10    10    11   ar
    11    11    12   ar
    12    12    13    1
    13    13    14    2
    14    13     2    1
    15    12     6   ar
    16     8    15    1
@<TRIPOS>MOLECULE
*****
 15 16 0 0 0
SMALL
GASTEIGER

@<TRIPOS>ATOM
      1 C          61.6407   86.4019    8.7691 C.3     1  UNL1        0.0345
      2 C          62.2980   85.4984    9.7700 C.2     1  UNL1        0.0202
      3 C          63.2454   84.4311    9.3084 C.2     1  UNL1        0.0410
      4 C          63.9027   83.5276   10.3092 C.2     1  UNL1        0.1984
      5 O          64.8501   82.4602    9.8475 O.2     1  UNL1       -0.2865
      6 C          63.6124   83.6913   11.7717 C.ar    1  UNL1        0.0756
      7 C          64.2696   82.7878   12.7726 C.ar    1  UNL1        0.1368
      8 O          65.2171   81.7205   12.3109 O.3     1  UNL1       -0.5054
      9 C          63.9794   82.9516   14.2350 C.ar    1  UNL1        0.0367
     10 C          63.0319   84.0189   14.6967 C.ar    1  UNL1        0.0032
     11 C          62.3747   84.9224   13.6959 C.ar    1  UNL1        0.0035
     12 C          62.6649   84.7586   12.2334 C.ar    1  UNL1        0.0446
     13 C          62.0077   85.6622   11.2325 C.2     1  UNL1        0.1919
     14 O          61.0602   86.7295   11.6941 O.2     1  UNL1       -0.2869
     15 H          65.3984   81.6182   11.3973 H       1  UNL1        0.2922
@<TRIPOS>BOND
     1     1     2    1
     2     2     3    2
     3     3     4    1
     4     4     5    2
     5     4     6    1
     6     6     7   ar
     7     7     8    1
     8     7     9   ar
     9     9    10   ar
    10    10    11   ar
    11    11    12   ar
    12    12    13    1
    13    13    14    2
    14    13     2    1
    15    12     6   ar
    16     8    15    1
@<TRIPOS>MOLECULE
*****
 15 16 0 0 0
SMALL
GASTEIGER

@<TRIPOS>ATOM
      1 C          62.6843   85.4252   16.1794 C.3     1  UNL1        0.0345
      2 C          62.7855   84.4232   15.0677 C.2     1  UNL1        0.0202
      3 C          62.4273   82.9880   15.3167 C.2     1  UNL1        0.0410
      4 C          62.5286   81.9860   14.2051 C.2     1  UNL1        0.1984
      5 O          62.1704   80.5509   14.4540 O.2     1  UNL1       -0.2865
      6 C          62.9880   82.4192   12.8444 C.ar    1  UNL1        0.0756
      7 C          63.0892   81.4172   11.7328 C.ar    1  UNL1        0.1368
      8 O          62.7310   79.9820   11.9817 O.3     1  UNL1       -0.5054
      9 C          63.5487   81.8504   10.3722 C.ar    1  UNL1        0.0367
     10 C          63.9069   83.2856   10.1232 C.ar    1  UNL1        0.0032
     11 C          63.8056   84.2875   11.2348 C.ar    1  UNL1        0.0035
     12 C          63.3462   83.8544   12.5954 C.ar    1  UNL1        0.0446
     13 C          63.2449   84.8564   13.7071 C.2     1  UNL1        0.1919
     14 O          63.6031   86.2915   13.4581 O.2     1  UNL1       -0.2869
     15 H          62.4441   79.7114   12.8317 H       1  UNL1        0.2922
@<TRIPOS>BOND
     1     1     2    1
     2     2     3    2
     3     3     4    1
     4     4     5    2
     5     4     6    1
     6     6     7   ar
     7     7     8    1
     8     7     9   ar
     9     9    10   ar
    10    10    11   ar
    11    11    12   ar
    12    12    13    1
    13    13    14    2
    14    13     2    1
    15    12     6   ar
    16     8    15    1
@<TRIPOS>MOLECULE
*****
 15 16 0 0 0
SMALL
GASTEIGER

@<TRIPOS>ATOM
      1 C          64.6764   89.6251   14.5315 C.3     1  UNL1        0.0345
      2 C          63.8487   89.3146   13.3196 C.2     1  UNL1        0.0202
      3 C          63.3817   90.4250   12.4257 C.2     1  UNL1        0.0410
      4 C          62.5540   90.1146   11.2139 C.2     1  UNL1        0.1984
      5 O          62.0870   91.2250   10.3201 O.2     1  UNL1       -0.2865
      6 C          62.1934   88.6937   10.8958 C.ar    1  UNL1        0.0756
      7 C          61.3657   88.3833    9.6840 C.ar    1  UNL1        0.1368
      8 O          60.8987   89.4937    8.7902 O.3     1  UNL1       -0.5054
      9 C          61.0051   86.9625    9.3660 C.ar    1  UNL1        0.0367
     10 C          61.4721   85.8521   10.2598 C.ar    1  UNL1        0.0032
     11 C          62.2998   86.1625   11.4717 C.ar    1  UNL1        0.0035
     12 C          62.6604   87.5833   11.7897 C.ar    1  UNL1        0.0446
     13 C          63.4881   87.8938   13.0016 C.2     1  UNL1        0.1919
     14 O          63.9551   86.7834   13.8954 O.2     1  UNL1       -0.2869
     15 H          61.1240   90.3812    8.9888 H       1  UNL1        0.2922
@<TRIPOS>BOND
     1     1     2    1
     2     2     3    2
     3     3     4    1
     4     4     5    2
     5     4     6    1
     6     6     7   ar
     7     7     8    1
     8     7     9   ar
     9     9    10   ar
    10    10    11   ar
    11    11    12   ar
    12    12    13    1
    13    13    14    2
    14    13     2    1
    15    12     6   ar
    16     8    15    1
@<TRIPOS>MOLECULE
*****
 15 16 0 0 0
SMALL
GASTEIGER

@<TRIPOS>ATOM
      1 C          59.3173   88.8651    7.2613 C.3     1  UNL1        0.0345
      2 C          60.1798   88.5278    8.4414 C.2     1  UNL1        0.0202
      3 C          60.7201   89.6226    9.3128 C.2     1  UNL1        0.0410
      4 C          61.5826   89.2853   10.4927 C.2     1  UNL1        0.1984
      5 O          62.1229   90.3802   11.3642 O.2     1  UNL1       -0.2865
      6 C          61.9047   87.8532   10.8014 C.ar    1  UNL1        0.0756
      7 C          62.7672   87.5159   11.9813 C.ar    1  UNL1        0.1368
      8 O          63.3075   88.6107   12.8528 O.3     1  UNL1       -0.5054
      9 C          63.0893   86.0838   12.2899 C.ar    1  UNL1        0.0367
     10 C          62.5489   84.9890   11.4185 C.ar    1  UNL1        0.0032
     11 C          61.6865   85.3262   10.2385 C.ar    1  UNL1        0.0035
     12 C          61.3644   86.7583    9.9299 C.ar    1  UNL1        0.0446
     13 C          60.5019   87.0957    8.7499 C.2     1  UNL1        0.1919
     14 O          59.9615   86.0008    7.8785 O.2     1  UNL1       -0.2869
     15 H          63.1063   89.5053   12.6600 H       1  UNL1        0.2922
@<TRIPOS>BOND
     1     1     2    1
     2     2     3    2
     3     3     4    1
     4     4     5    2
     5     4     6    1
     6     6     7   ar
     7     7     8    1
     8     7     9   ar
     9     9    10   ar
    10    10    11   ar
    11    11    12   ar
    12    12    13    1
    13    13    14    2
    14    13     2    1
    15    12     6   ar
    16     8    15    1
@<TRIPOS>MOLECULE
*****
 15 16 0 0 0
SMALL
GASTEIGER

@<TRIPOS>ATOM
      1 C          63.9418   84.8653   14.1309 C.3     1  UNL1        0.0345
      2 C          63.7705   86.2876   13.6861 C.2     1  UNL1        0.0202
      3 C          64.3110   87.4065   14.5263 C.2     1  UNL1        0.0410
      4 C          64.1397   88.8287   14.0815 C.2     1  UNL1        0.1984
      5 O          64.6802   89.9476   14.9217 O.2     1  UNL1       -0.2865
      6 C          63.4278   89.1322   12.7965 C.ar    1  UNL1        0.0756
      7 C          63.2565   90.5544   12.3517 C.ar    1  UNL1        0.1368
      8 O          63.7970   91.6733   13.1919 O.3     1  UNL1       -0.5054
      9 C          62.5447   90.8577   11.0667 C.ar    1  UNL1        0.0367
     10 C          62.0042   89.7388   10.2265 C.ar    1  UNL1        0.0032
     11 C          62.1755   88.3166   10.6712 C.ar    1  UNL1        0.0035
     12 C          62.8873   88.0133   11.9562 C.ar    1  UNL1        0.0446
     13 C          63.0587   86.5910   12.4011 C.2     1  UNL1        0.1919
     14 O          62.5182   85.4721   11.5608 O.2     1  UNL1       -0.2869
     15 H          64.2416   91.4838   13.9946 H       1  UNL1        0.2922
@<TRIPOS>BOND
     1     1     2    1
     2     2     3    2
     3     3     4    1
     4     4     5    2
     5     4     6    1
     6     6     7   ar
     7     7     8    1
     8     7     9   ar
     9     9    10   ar
    10    10    11   ar
    11    11    12   ar
    12    12    13    1
    13    13    14    2
    14    13     2    1
    15    12     6   ar
    16     8    15    1
@<TRIPOS>MOLECULE
*****
 15 16 0 0 0
SMALL
GASTEIGER

@<TRIPOS>ATOM
      1 C          64.0808   91.2982   13.0223 C.3     1  UNL1        0.0345
      2 C          63.5605   89.9767   12.5395 C.2     1  UNL1        0.0202
      3 C          63.8439   88.7282   13.3212 C.2     1  UNL1        0.0410
      4 C          63.3237   87.4068   12.8384 C.2     1  UNL1        0.1984
      5 O          63.6072   86.1583   13.6201 O.2     1  UNL1       -0.2865
      6 C          62.5200   87.3337   11.5740 C.ar    1  UNL1        0.0756
      7 C          61.9998   86.0123   11.0912 C.ar    1  UNL1        0.1368
      8 O          62.2832   84.7638   11.8729 O.3     1  UNL1       -0.5054
      9 C          61.1961   85.9393    9.8268 C.ar    1  UNL1        0.0367
     10 C          60.9126   87.1878    9.0452 C.ar    1  UNL1        0.0032
     11 C          61.4329   88.5092    9.5279 C.ar    1  UNL1        0.0035
     12 C          62.2365   88.5822   10.7923 C.ar    1  UNL1        0.0446
     13 C          62.7568   89.9037   11.2751 C.2     1  UNL1        0.1919
     14 O          62.4734   91.1522   10.4935 O.2     1  UNL1       -0.2869
     15 H          62.7853   84.8094   12.6627 H       1  UNL1        0.2922
@<TRIPOS>BOND
     1     1     2    1
     2     2     3    2
     3     3     4    1
     4     4     5    2
     5     4     6    1
     6     6     7   ar
     7     7     8    1
     8     7     9   ar
     9     9    10   ar
    10    10    11   ar
    11    11    12   ar
    12    12    13    1
    13    13    14    2
    14    13     2    1
    15    12     6   ar
    16     8    15    1
