@<TRIPOS>MOLECULE
*****
 28 31 0 0 0
SMALL
GASTEIGER

@<TRIPOS>ATOM
      1 N          64.4161   90.4931   13.8073 N.ar    1  UNL1       -0.3048
      2 C          65.4714   91.5400   14.0081 C.ar    1  UNL1        0.0833
      3 C          65.5591   92.3564   12.7528 C.ar    1  UNL1        0.0579
      4 C          64.5580   91.8141   11.7762 C.ar    1  UNL1        0.0207
      5 C          64.1985   92.2200   10.3777 C.ar    1  UNL1        0.0016
      6 C          63.1325   91.4744    9.6310 C.ar    1  UNL1        0.0001
      7 C          62.4261   90.3228   10.2827 C.ar    1  UNL1        0.0015
      8 C          62.7856   89.9168   11.6812 C.ar    1  UNL1        0.0175
      9 C          63.8516   90.6624   12.4279 C.ar    1  UNL1        0.0641
     10 C          63.1635   87.3891   16.8151 C.ar    1  UNL1        0.0141
     11 C          63.8701   86.9740   15.5588 C.ar    1  UNL1        0.0026
     12 C          64.2876   88.0086   14.5563 C.ar    1  UNL1        0.0176
     13 C          63.9986   89.4584   14.8099 C.ar    1  UNL1        0.0640
     14 C          63.2919   89.8736   16.0663 C.ar    1  UNL1        0.0176
     15 C          62.8744   88.8390   17.0688 C.ar    1  UNL1        0.0026
     16 O          62.6451   86.7153   19.2701 O.co2   1  UNL1       -0.5446
     17 C          62.7460   86.3545   17.8177 C.2     1  UNL1        0.0729
     18 O          62.4293   84.9590   17.3678 O.co2   1  UNL1       -0.5446
     19 C          66.4853   93.5122   12.5157 C.2     1  UNL1        0.1987
     20 O          67.0214   94.2944   13.6778 O.2     1  UNL1       -0.2865
     21 C          66.8753   93.8859   11.1162 C.ar    1  UNL1        0.0601
     22 C          66.4197   95.1910   10.5338 C.ar    1  UNL1        0.0615
     23 CL         65.5740   96.1223   11.3508 Cl      1  UNL1       -0.0821
     24 C          66.8097   95.5647    9.1345 C.ar    1  UNL1        0.0115
     25 C          67.6554   94.6333    8.3176 C.ar    1  UNL1        0.0017
     26 C          68.1110   93.3283    8.9000 C.ar    1  UNL1        0.0115
     27 C          67.7210   92.9545   10.2993 C.ar    1  UNL1        0.0615
     28 CL         68.1766   91.6495   10.8818 Cl      1  UNL1       -0.0821
@<TRIPOS>UNITY_ATOM_ATTR
16 1
charge -1
@<TRIPOS>BOND
     1    16    17   ar
     2    17    18   ar
     3    17    10    1
     4    10    11   ar
     5    11    12   ar
     6    12    13   ar
     7    13     1    1
     8     1     2   ar
     9     2     3   ar
    10     3    19    1
    11    19    20    2
    12    19    21    1
    13    21    22   ar
    14    22    23    1
    15    22    24   ar
    16    24    25   ar
    17    25    26   ar
    18    26    27   ar
    19    27    28    1
    20     3     4   ar
    21     4     5   ar
    22     5     6   ar
    23     6     7   ar
    24     7     8   ar
    25     8     9   ar
    26    13    14   ar
    27    14    15   ar
    28    15    10   ar
    29     9     1   ar
    30    27    21   ar
    31     9     4   ar
@<TRIPOS>MOLECULE
*****
 28 31 0 0 0
SMALL
GASTEIGER

@<TRIPOS>ATOM
      1 N          63.3612   90.4936   11.5023 N.ar    1  UNL1       -0.3048
      2 C          64.2071   91.6089   10.9632 C.ar    1  UNL1        0.0833
      3 C          64.9215   92.2481   12.1170 C.ar    1  UNL1        0.0579
      4 C          64.5171   91.5279   13.3691 C.ar    1  UNL1        0.0207
      5 C          64.9023   91.7194   14.8060 C.ar    1  UNL1        0.0016
      6 C          64.3233   90.8265   15.8631 C.ar    1  UNL1        0.0001
      7 C          63.3590   89.7421   15.4832 C.ar    1  UNL1        0.0015
      8 C          62.9738   89.5507   14.0463 C.ar    1  UNL1        0.0175
      9 C          63.5528   90.4435   12.9892 C.ar    1  UNL1        0.0641
     10 C          60.7137   87.7750    9.0836 C.ar    1  UNL1        0.0141
     11 C          60.5018   89.2594    9.0425 C.ar    1  UNL1        0.0026
     12 C          61.3843   90.1656    9.8488 C.ar    1  UNL1        0.0176
     13 C          62.4787   89.5875   10.6961 C.ar    1  UNL1        0.0640
     14 C          62.6906   88.1030   10.7372 C.ar    1  UNL1        0.0176
     15 C          61.8081   87.1968    9.9309 C.ar    1  UNL1        0.0026
     16 O          58.3603   87.1466    8.1801 O.co2   1  UNL1       -0.5446
     17 C          59.8311   86.8689    8.2774 C.2     1  UNL1        0.0729
     18 O          60.4195   85.6851    7.5685 O.co2   1  UNL1       -0.5446
     19 C          65.8731   93.4046   12.0333 C.2     1  UNL1        0.1987
     20 O          66.0824   94.2914   13.2248 O.2     1  UNL1       -0.2865
     21 C          66.6156   93.6742   10.7581 C.ar    1  UNL1        0.0601
     22 C          66.2495   94.8582    9.9131 C.ar    1  UNL1        0.0615
     23 CL         65.1409   95.7726   10.3433 Cl      1  UNL1       -0.0821
     24 C          66.9918   95.1279    8.6379 C.ar    1  UNL1        0.0115
     25 C          68.1003   94.2134    8.2077 C.ar    1  UNL1        0.0017
     26 C          68.4664   93.0294    9.0527 C.ar    1  UNL1        0.0115
     27 C          67.7241   92.7598   10.3279 C.ar    1  UNL1        0.0615
     28 CL         68.0902   91.5757   11.1729 Cl      1  UNL1       -0.0821
@<TRIPOS>UNITY_ATOM_ATTR
16 1
charge -1
@<TRIPOS>BOND
     1    16    17   ar
     2    17    18   ar
     3    17    10    1
     4    10    11   ar
     5    11    12   ar
     6    12    13   ar
     7    13     1    1
     8     1     2   ar
     9     2     3   ar
    10     3    19    1
    11    19    20    2
    12    19    21    1
    13    21    22   ar
    14    22    23    1
    15    22    24   ar
    16    24    25   ar
    17    25    26   ar
    18    26    27   ar
    19    27    28    1
    20     3     4   ar
    21     4     5   ar
    22     5     6   ar
    23     6     7   ar
    24     7     8   ar
    25     8     9   ar
    26    13    14   ar
    27    14    15   ar
    28    15    10   ar
    29     9     1   ar
    30    27    21   ar
    31     9     4   ar
@<TRIPOS>MOLECULE
*****
 28 31 0 0 0
SMALL
GASTEIGER

@<TRIPOS>ATOM
      1 N          63.3625   90.4951   11.5001 N.ar    1  UNL1       -0.3048
      2 C          64.2082   91.6106   10.9611 C.ar    1  UNL1        0.0833
      3 C          64.9213   92.2507   12.1151 C.ar    1  UNL1        0.0579
      4 C          64.5164   91.5308   13.3673 C.ar    1  UNL1        0.0207
      5 C          64.9004   91.7231   14.8044 C.ar    1  UNL1        0.0016
      6 C          64.3210   90.8304   15.8614 C.ar    1  UNL1        0.0001
      7 C          63.3576   89.7453   15.4813 C.ar    1  UNL1        0.0015
      8 C          62.9735   89.5530   14.0441 C.ar    1  UNL1        0.0175
      9 C          63.5529   90.4458   12.9871 C.ar    1  UNL1        0.0641
     10 C          60.7181   87.7742    9.0805 C.ar    1  UNL1        0.0141
     11 C          61.8097   87.1967    9.9318 C.ar    1  UNL1        0.0026
     12 C          62.6911   88.1036   10.7384 C.ar    1  UNL1        0.0176
     13 C          62.4810   89.5881   10.6935 C.ar    1  UNL1        0.0640
     14 C          61.3894   90.1657    9.8421 C.ar    1  UNL1        0.0176
     15 C          60.5079   89.2587    9.0356 C.ar    1  UNL1        0.0026
     16 O          60.4288   85.6930    7.5526 O.co2   1  UNL1       -0.5446
     17 C          59.8366   86.8672    8.2739 C.2     1  UNL1        0.0729
     18 O          58.3631   87.1346    8.1888 O.co2   1  UNL1       -0.5446
     19 C          65.8724   93.4076   12.0317 C.2     1  UNL1        0.1987
     20 O          66.0838   94.2923   13.2243 O.2     1  UNL1       -0.2865
     21 C          66.6123   93.6797   10.7555 C.ar    1  UNL1        0.0601
     22 C          67.7191   92.7654   10.3206 C.ar    1  UNL1        0.0615
     23 CL         68.0860   91.5790   11.1619 Cl      1  UNL1       -0.0821
     24 C          68.4589   93.0375    9.0445 C.ar    1  UNL1        0.0115
     25 C          68.0920   94.2239    8.2032 C.ar    1  UNL1        0.0017
     26 C          66.9852   95.1382    8.6381 C.ar    1  UNL1        0.0115
     27 C          66.2454   94.8662    9.9142 C.ar    1  UNL1        0.0615
     28 CL         65.1386   95.7804   10.3491 Cl      1  UNL1       -0.0821
@<TRIPOS>UNITY_ATOM_ATTR
16 1
charge -1
@<TRIPOS>BOND
     1    16    17   ar
     2    17    18   ar
     3    17    10    1
     4    10    11   ar
     5    11    12   ar
     6    12    13   ar
     7    13     1    1
     8     1     2   ar
     9     2     3   ar
    10     3    19    1
    11    19    20    2
    12    19    21    1
    13    21    22   ar
    14    22    23    1
    15    22    24   ar
    16    24    25   ar
    17    25    26   ar
    18    26    27   ar
    19    27    28    1
    20     3     4   ar
    21     4     5   ar
    22     5     6   ar
    23     6     7   ar
    24     7     8   ar
    25     8     9   ar
    26    13    14   ar
    27    14    15   ar
    28    15    10   ar
    29     9     1   ar
    30    27    21   ar
    31     9     4   ar
@<TRIPOS>MOLECULE
*****
 28 31 0 0 0
SMALL
GASTEIGER

@<TRIPOS>ATOM
      1 N          62.4351   87.2369   11.4123 N.ar    1  UNL1       -0.3048
      2 C          62.7572   85.7983   11.6893 C.ar    1  UNL1        0.0833
      3 C          63.5872   85.7413   12.9375 C.ar    1  UNL1        0.0579
      4 C          63.7781   87.1447   13.4317 C.ar    1  UNL1        0.0207
      5 C          64.5083   87.7002   14.6184 C.ar    1  UNL1        0.0016
      6 C          64.5264   89.1801   14.8623 C.ar    1  UNL1        0.0001
      7 C          63.8143   90.1044   13.9197 C.ar    1  UNL1        0.0015
      8 C          63.0841   89.5488   12.7331 C.ar    1  UNL1        0.0175
      9 C          63.0660   88.0690   12.4891 C.ar    1  UNL1        0.0641
     10 C          60.0029   88.7848    7.9570 C.ar    1  UNL1        0.0141
     11 C          60.2415   87.3114    8.1058 C.ar    1  UNL1        0.0026
     12 C          61.0522   86.7955    9.2576 C.ar    1  UNL1        0.0176
     13 C          61.6244   87.7528   10.2605 C.ar    1  UNL1        0.0640
     14 C          61.3858   89.2263   10.1117 C.ar    1  UNL1        0.0176
     15 C          60.5751   89.7423    8.9599 C.ar    1  UNL1        0.0026
     16 O          59.8543   90.0935    5.7176 O.co2   1  UNL1       -0.5446
     17 C          59.1922   89.3008    6.8052 C.2     1  UNL1        0.0729
     18 O          57.7193   89.0239    6.7412 O.co2   1  UNL1       -0.5446
     19 C          64.1310   84.4991   13.5788 C.2     1  UNL1        0.1987
     20 O          65.4272   84.5495   14.3318 O.2     1  UNL1       -0.2865
     21 C          63.3783   83.2063   13.4670 C.ar    1  UNL1        0.0601
     22 C          63.6106   82.3024   12.2928 C.ar    1  UNL1        0.0615
     23 CL         64.5955   82.6912   11.2303 Cl      1  UNL1       -0.0821
     24 C          62.8581   81.0096   12.1809 C.ar    1  UNL1        0.0115
     25 C          61.8732   80.6209   13.2435 C.ar    1  UNL1        0.0017
     26 C          61.6409   81.5249   14.4177 C.ar    1  UNL1        0.0115
     27 C          62.3935   82.8176   14.5295 C.ar    1  UNL1        0.0615
     28 CL         62.1612   83.7216   15.7038 Cl      1  UNL1       -0.0821
@<TRIPOS>UNITY_ATOM_ATTR
16 1
charge -1
@<TRIPOS>BOND
     1    16    17   ar
     2    17    18   ar
     3    17    10    1
     4    10    11   ar
     5    11    12   ar
     6    12    13   ar
     7    13     1    1
     8     1     2   ar
     9     2     3   ar
    10     3    19    1
    11    19    20    2
    12    19    21    1
    13    21    22   ar
    14    22    23    1
    15    22    24   ar
    16    24    25   ar
    17    25    26   ar
    18    26    27   ar
    19    27    28    1
    20     3     4   ar
    21     4     5   ar
    22     5     6   ar
    23     6     7   ar
    24     7     8   ar
    25     8     9   ar
    26    13    14   ar
    27    14    15   ar
    28    15    10   ar
    29     9     1   ar
    30    27    21   ar
    31     9     4   ar
@<TRIPOS>MOLECULE
*****
 28 31 0 0 0
SMALL
GASTEIGER

@<TRIPOS>ATOM
      1 N          62.4338   87.2333   11.4135 N.ar    1  UNL1       -0.3048
      2 C          62.7564   85.7946   11.6894 C.ar    1  UNL1        0.0833
      3 C          63.5862   85.7368   12.9376 C.ar    1  UNL1        0.0579
      4 C          63.7765   87.1397   13.4332 C.ar    1  UNL1        0.0207
      5 C          64.5063   87.6945   14.6204 C.ar    1  UNL1        0.0016
      6 C          64.5239   89.1741   14.8657 C.ar    1  UNL1        0.0001
      7 C          63.8116   90.0991   13.9238 C.ar    1  UNL1        0.0015
      8 C          63.0819   89.5443   12.7366 C.ar    1  UNL1        0.0175
      9 C          63.0643   88.0647   12.4912 C.ar    1  UNL1        0.0641
     10 C          60.0017   88.7836    7.9593 C.ar    1  UNL1        0.0141
     11 C          60.2209   87.3084    8.1200 C.ar    1  UNL1        0.0026
     12 C          61.0316   86.7917    9.2714 C.ar    1  UNL1        0.0176
     13 C          61.6231   87.7501   10.2621 C.ar    1  UNL1        0.0640
     14 C          61.4040   89.2253   10.1013 C.ar    1  UNL1        0.0176
     15 C          60.5933   89.7420    8.9499 C.ar    1  UNL1        0.0026
     16 O          57.7178   89.0254    6.7448 O.co2   1  UNL1       -0.5446
     17 C          59.1910   89.3003    6.8078 C.2     1  UNL1        0.0729
     18 O          59.8535   90.0920    5.7196 O.co2   1  UNL1       -0.5446
     19 C          64.1303   84.4942   13.5778 C.2     1  UNL1        0.1987
     20 O          65.4296   84.5430   14.3256 O.2     1  UNL1       -0.2865
     21 C          63.3749   83.2026   13.4703 C.ar    1  UNL1        0.0601
     22 C          62.3907   82.8185   14.5350 C.ar    1  UNL1        0.0615
     23 CL         62.1618   83.7259   15.7074 Cl      1  UNL1       -0.0821
     24 C          61.6353   81.5271   14.4275 C.ar    1  UNL1        0.0115
     25 C          61.8642   80.6198   13.2552 C.ar    1  UNL1        0.0017
     26 C          62.8484   81.0039   12.1904 C.ar    1  UNL1        0.0115
     27 C          63.6037   82.2953   12.2979 C.ar    1  UNL1        0.0615
     28 CL         64.5880   82.6795   11.2331 Cl      1  UNL1       -0.0821
@<TRIPOS>UNITY_ATOM_ATTR
16 1
charge -1
@<TRIPOS>BOND
     1    16    17   ar
     2    17    18   ar
     3    17    10    1
     4    10    11   ar
     5    11    12   ar
     6    12    13   ar
     7    13     1    1
     8     1     2   ar
     9     2     3   ar
    10     3    19    1
    11    19    20    2
    12    19    21    1
    13    21    22   ar
    14    22    23    1
    15    22    24   ar
    16    24    25   ar
    17    25    26   ar
    18    26    27   ar
    19    27    28    1
    20     3     4   ar
    21     4     5   ar
    22     5     6   ar
    23     6     7   ar
    24     7     8   ar
    25     8     9   ar
    26    13    14   ar
    27    14    15   ar
    28    15    10   ar
    29     9     1   ar
    30    27    21   ar
    31     9     4   ar
@<TRIPOS>MOLECULE
*****
 28 31 0 0 0
SMALL
GASTEIGER

@<TRIPOS>ATOM
      1 N          62.4259   86.7290   11.3210 N.ar    1  UNL1       -0.3048
      2 C          63.1304   87.9372   11.8632 C.ar    1  UNL1        0.0833
      3 C          62.6238   89.1398   11.1235 C.ar    1  UNL1        0.0579
      4 C          61.6064   88.6749   10.1242 C.ar    1  UNL1        0.0207
      5 C          60.7755   89.4158    9.1189 C.ar    1  UNL1        0.0016
      6 C          59.8223   88.6667    8.2357 C.ar    1  UNL1        0.0001
      7 C          59.7000   87.1767    8.3577 C.ar    1  UNL1        0.0015
      8 C          60.5309   86.4358    9.3630 C.ar    1  UNL1        0.0175
      9 C          61.4841   87.1849   10.2463 C.ar    1  UNL1        0.0641
     10 C          63.0319   82.4820   12.6799 C.ar    1  UNL1        0.0141
     11 C          62.6998   83.5494   13.6801 C.ar    1  UNL1        0.0026
     12 C          62.4979   84.9650   13.2271 C.ar    1  UNL1        0.0176
     13 C          62.6279   85.3133   11.7740 C.ar    1  UNL1        0.0640
     14 C          62.9600   84.2459   10.7737 C.ar    1  UNL1        0.0176
     15 C          63.1619   82.8303   11.2267 C.ar    1  UNL1        0.0026
     16 O          63.9988   80.7837   14.3917 O.co2   1  UNL1       -0.5446
     17 C          63.2338   81.0664   13.1328 C.2     1  UNL1        0.0729
     18 O          62.6708   79.9335   12.3269 O.co2   1  UNL1       -0.5446
     19 C          63.0585   90.5584   11.3444 C.2     1  UNL1        0.1987
     20 O          62.6557   91.6264   10.3713 O.2     1  UNL1       -0.2865
     21 C          63.8960   90.9090   12.5385 C.ar    1  UNL1        0.0601
     22 C          65.1672   91.6853   12.3612 C.ar    1  UNL1        0.0615
     23 CL         65.6008   92.1110   10.9898 Cl      1  UNL1       -0.0821
     24 C          66.0047   92.0358   13.5552 C.ar    1  UNL1        0.0115
     25 C          65.5710   91.6101   14.9266 C.ar    1  UNL1        0.0017
     26 C          64.2998   90.8338   15.1039 C.ar    1  UNL1        0.0115
     27 C          63.4623   90.4832   13.9099 C.ar    1  UNL1        0.0615
     28 CL         62.1911   89.7069   14.0872 Cl      1  UNL1       -0.0821
@<TRIPOS>UNITY_ATOM_ATTR
16 1
charge -1
@<TRIPOS>BOND
     1    16    17   ar
     2    17    18   ar
     3    17    10    1
     4    10    11   ar
     5    11    12   ar
     6    12    13   ar
     7    13     1    1
     8     1     2   ar
     9     2     3   ar
    10     3    19    1
    11    19    20    2
    12    19    21    1
    13    21    22   ar
    14    22    23    1
    15    22    24   ar
    16    24    25   ar
    17    25    26   ar
    18    26    27   ar
    19    27    28    1
    20     3     4   ar
    21     4     5   ar
    22     5     6   ar
    23     6     7   ar
    24     7     8   ar
    25     8     9   ar
    26    13    14   ar
    27    14    15   ar
    28    15    10   ar
    29     9     1   ar
    30    27    21   ar
    31     9     4   ar
@<TRIPOS>MOLECULE
*****
 28 31 0 0 0
SMALL
GASTEIGER

@<TRIPOS>ATOM
      1 N          62.9433   87.0538   12.3337 N.ar    1  UNL1       -0.3048
      2 C          63.6629   88.1043   13.1265 C.ar    1  UNL1        0.0833
      3 C          63.2604   89.4462   12.5906 C.ar    1  UNL1        0.0579
      4 C          62.2921   89.2251   11.4665 C.ar    1  UNL1        0.0207
      5 C          61.5635   90.1791   10.5671 C.ar    1  UNL1        0.0016
      6 C          60.6389   89.6545    9.5089 C.ar    1  UNL1        0.0001
      7 C          60.4429   88.1759    9.3501 C.ar    1  UNL1        0.0015
      8 C          61.1715   87.2219   10.2495 C.ar    1  UNL1        0.0175
      9 C          62.0961   87.7465   11.3078 C.ar    1  UNL1        0.0641
     10 C          63.2688   82.6051   12.9285 C.ar    1  UNL1        0.0141
     11 C          62.8369   83.1548   11.6013 C.ar    1  UNL1        0.0026
     12 C          62.7284   84.6377   11.4031 C.ar    1  UNL1        0.0176
     13 C          63.0518   85.5709   12.5319 C.ar    1  UNL1        0.0640
     14 C          63.4837   85.0213   13.8591 C.ar    1  UNL1        0.0176
     15 C          63.5922   83.5384   14.0574 C.ar    1  UNL1        0.0026
     16 O          63.9960   80.5764   14.3793 O.co2   1  UNL1       -0.5446
     17 C          63.3773   81.1223   13.1267 C.2     1  UNL1        0.0729
     18 O          62.8670   80.1853   12.0723 O.co2   1  UNL1       -0.5446
     19 C          63.7418   90.7759   13.0909 C.2     1  UNL1        0.1987
     20 O          63.0122   91.4673   14.2042 O.2     1  UNL1       -0.2865
     21 C          64.9529   91.4143   12.4777 C.ar    1  UNL1        0.0601
     22 C          64.8878   91.9593   11.0818 C.ar    1  UNL1        0.0615
     23 CL         63.6117   91.8660   10.2990 Cl      1  UNL1       -0.0821
     24 C          66.0988   92.5976   10.4686 C.ar    1  UNL1        0.0115
     25 C          67.3749   92.6909   11.2514 C.ar    1  UNL1        0.0017
     26 C          67.4400   92.1459   12.6474 C.ar    1  UNL1        0.0115
     27 C          66.2290   91.5075   13.2605 C.ar    1  UNL1        0.0615
     28 CL         66.2941   90.9625   14.6565 Cl      1  UNL1       -0.0821
@<TRIPOS>UNITY_ATOM_ATTR
16 1
charge -1
@<TRIPOS>BOND
     1    16    17   ar
     2    17    18   ar
     3    17    10    1
     4    10    11   ar
     5    11    12   ar
     6    12    13   ar
     7    13     1    1
     8     1     2   ar
     9     2     3   ar
    10     3    19    1
    11    19    20    2
    12    19    21    1
    13    21    22   ar
    14    22    23    1
    15    22    24   ar
    16    24    25   ar
    17    25    26   ar
    18    26    27   ar
    19    27    28    1
    20     3     4   ar
    21     4     5   ar
    22     5     6   ar
    23     6     7   ar
    24     7     8   ar
    25     8     9   ar
    26    13    14   ar
    27    14    15   ar
    28    15    10   ar
    29     9     1   ar
    30    27    21   ar
    31     9     4   ar
@<TRIPOS>MOLECULE
*****
 28 31 0 0 0
SMALL
GASTEIGER

@<TRIPOS>ATOM
      1 N          62.2655   86.5535   11.4929 N.ar    1  UNL1       -0.3048
      2 C          62.7221   87.7882   12.2119 C.ar    1  UNL1        0.0833
      3 C          62.2313   88.9798   11.4443 C.ar    1  UNL1        0.0579
      4 C          61.4713   88.4815   10.2509 C.ar    1  UNL1        0.0207
      5 C          60.7628   89.1995    9.1407 C.ar    1  UNL1        0.0016
      6 C          60.0754   88.4179    8.0607 C.ar    1  UNL1        0.0001
      7 C          60.0966   86.9184    8.0907 C.ar    1  UNL1        0.0015
      8 C          60.8051   86.2004    9.2009 C.ar    1  UNL1        0.0175
      9 C          61.4924   86.9819   10.2810 C.ar    1  UNL1        0.0641
     10 C          63.0728   82.3090   12.7511 C.ar    1  UNL1        0.0141
     11 C          63.2139   82.7042   11.3110 C.ar    1  UNL1        0.0026
     12 C          62.9447   84.1190   10.8916 C.ar    1  UNL1        0.0176
     13 C          62.5346   85.1387   11.9123 C.ar    1  UNL1        0.0640
     14 C          62.3936   84.7435   13.3525 C.ar    1  UNL1        0.0176
     15 C          62.6627   83.3287   13.7719 C.ar    1  UNL1        0.0026
     16 O          62.7694   79.7557   12.3792 O.co2   1  UNL1       -0.5446
     17 C          63.3420   80.8942   13.1704 C.2     1  UNL1        0.0729
     18 O          64.1836   80.6179   14.3809 O.co2   1  UNL1       -0.5446
     19 C          62.4602   90.4173   11.8064 C.2     1  UNL1        0.1987
     20 O          61.4141   91.4455   11.4931 O.2     1  UNL1       -0.2865
     21 C          63.7354   90.8266   12.4820 C.ar    1  UNL1        0.0601
     22 C          63.9791   90.4526   13.9141 C.ar    1  UNL1        0.0615
     23 CL         62.9475   89.6691   14.6705 Cl      1  UNL1       -0.0821
     24 C          65.2542   90.8618   14.5897 C.ar    1  UNL1        0.0115
     25 C          66.2857   91.6452   13.8332 C.ar    1  UNL1        0.0017
     26 C          66.0421   92.0193   12.4012 C.ar    1  UNL1        0.0115
     27 C          64.7670   91.6100   11.7256 C.ar    1  UNL1        0.0615
     28 CL         64.5233   91.9841   10.2936 Cl      1  UNL1       -0.0821
@<TRIPOS>UNITY_ATOM_ATTR
16 1
charge -1
@<TRIPOS>BOND
     1    16    17   ar
     2    17    18   ar
     3    17    10    1
     4    10    11   ar
     5    11    12   ar
     6    12    13   ar
     7    13     1    1
     8     1     2   ar
     9     2     3   ar
    10     3    19    1
    11    19    20    2
    12    19    21    1
    13    21    22   ar
    14    22    23    1
    15    22    24   ar
    16    24    25   ar
    17    25    26   ar
    18    26    27   ar
    19    27    28    1
    20     3     4   ar
    21     4     5   ar
    22     5     6   ar
    23     6     7   ar
    24     7     8   ar
    25     8     9   ar
    26    13    14   ar
    27    14    15   ar
    28    15    10   ar
    29     9     1   ar
    30    27    21   ar
    31     9     4   ar
