@<TRIPOS>MOLECULE
*****
 32 36 0 0 0
SMALL
GASTEIGER

@<TRIPOS>ATOM
      1 C          62.1858   81.7965   12.1599 C.3     1  UNL1        0.0243
      2 C          62.9180   82.5086   13.2584 C.3     1  UNL1        0.1075
      3 C          63.5302   81.8688   14.4691 C.3     1  UNL1        0.1638
      4 O          64.1571   82.9504   15.2981 O.3     1  UNL1       -0.3342
      5 C          63.9323   84.2587   14.5997 C.3     1  UNL1        0.2176
      6 C          64.3260   85.6634   14.9488 C.3     1  UNL1        0.1572
      7 N          63.9539   86.7950   14.0373 N.ar    1  UNL1       -0.3156
      8 C          64.3476   88.1998   14.3864 C.ar    1  UNL1        0.0840
      9 C          63.9755   89.3314   13.4749 C.ar    1  UNL1        0.1125
     10 C          63.2097   89.0585   12.2143 C.ar    1  UNL1        0.2364
     11 O          62.8376   90.1901   11.3027 O.2     1  UNL1       -0.2831
     12 C          62.8160   87.6538   11.8652 C.ar    1  UNL1        0.1936
     13 O          62.0502   87.3808   10.6046 O.3     1  UNL1       -0.5017
     14 C          63.1881   86.5221   12.7768 C.ar    1  UNL1        0.1517
     15 C          62.7944   85.1173   12.4276 C.2     1  UNL1        0.2698
     16 O          62.0286   84.8444   11.1670 O.2     1  UNL1       -0.2681
     17 N          63.1665   83.9857   13.3391 N.am    1  UNL1       -0.2504
     18 H          61.8178   88.0877   10.0352 H       1  UNL1        0.2924
     19 C          64.3692   90.7361   13.8239 C.2     1  UNL1        0.2508
     20 O          63.6702   91.4558   14.9391 O.2     1  UNL1       -0.2700
     21 N          65.4618   91.4212   13.0579 N.am    1  UNL1       -0.2968
     22 H          65.9206   90.9488   12.3259 H       1  UNL1        0.1501
     23 C          65.8555   92.8258   13.4069 C.3     1  UNL1        0.1166
     24 C          66.2018   93.7998   12.3199 C.ar    1  UNL1       -0.0009
     25 C          66.1981   95.2727   12.6036 C.ar    1  UNL1       -0.0009
     26 C          66.5443   96.2467   11.5167 C.ar    1  UNL1        0.0239
     27 C          66.8944   95.7478   10.1460 C.ar    1  UNL1        0.1431
     28 N          67.2755   96.4638    8.8844 N.ar    1  UNL1       -0.0483
     29 O          67.5148   95.4334    7.8209 O.2     1  UNL1       -0.2415
     30 N          67.2815   94.0806    8.4254 N.ar    1  UNL1       -0.0483
     31 C          66.8981   94.2749    9.8624 C.ar    1  UNL1        0.1429
     32 C          66.5518   93.3008   10.9494 C.ar    1  UNL1        0.0215
@<TRIPOS>BOND
     1     2     1    1
     2     2     3    1
     3     3     4    1
     4     4     5    1
     5     5     6    1
     6     6     7    1
     7     7     8   ar
     8     8     9   ar
     9     9    19    1
    10    19    20    2
    11    19    21   am
    12    21    23    1
    13    23    24    1
    14    24    25   ar
    15    25    26   ar
    16    26    27   ar
    17    27    28   ar
    18    28    29   ar
    19    29    30   ar
    20    30    31   ar
    21    31    32   ar
    22     9    10   ar
    23    10    11    2
    24    10    12   ar
    25    12    13    1
    26    12    14   ar
    27    14    15    1
    28    15    16    2
    29    15    17   am
    30    17     2    1
    31    17     5    1
    32    14     7   ar
    33    32    24   ar
    34    31    27   ar
    35    21    22    1
    36    13    18    1
@<TRIPOS>MOLECULE
*****
 32 36 0 0 0
SMALL
GASTEIGER

@<TRIPOS>ATOM
      1 C          64.9715   85.0300   14.9181 C.3     1  UNL1        0.0243
      2 C          64.3073   84.4207   13.7191 C.3     1  UNL1        0.1075
      3 C          64.3475   82.9727   13.3297 C.3     1  UNL1        0.1638
      4 O          63.5514   82.8094   12.0689 O.3     1  UNL1       -0.3342
      5 C          63.0191   84.1566   11.6792 C.3     1  UNL1        0.2176
      6 C          62.1693   84.6052   10.5274 C.3     1  UNL1        0.1572
      7 N          61.7867   86.0495   10.3955 N.ar    1  UNL1       -0.3156
      8 C          60.9369   86.4981    9.2436 C.ar    1  UNL1        0.0840
      9 C          60.5544   87.9425    9.1117 C.ar    1  UNL1        0.1125
     10 C          61.0215   88.9383   10.1316 C.ar    1  UNL1        0.2364
     11 O          60.6390   90.3827    9.9997 O.2     1  UNL1       -0.2831
     12 C          61.8713   88.4897   11.2834 C.ar    1  UNL1        0.1936
     13 O          62.3385   89.4855   12.3033 O.3     1  UNL1       -0.5017
     14 C          62.2539   87.0453   11.4153 C.ar    1  UNL1        0.1517
     15 C          63.1037   86.5967   12.5672 C.2     1  UNL1        0.2698
     16 O          63.5709   87.5926   13.5870 O.2     1  UNL1       -0.2681
     17 N          63.4863   85.1523   12.6991 N.am    1  UNL1       -0.2504
     18 H          62.0995   90.3878   12.2209 H       1  UNL1        0.2924
     19 C          59.7046   88.3911    7.9599 C.2     1  UNL1        0.2508
     20 O          58.6029   87.5086    7.4522 O.2     1  UNL1       -0.2700
     21 N          59.9564   89.7221    7.3158 N.am    1  UNL1       -0.2968
     22 H          60.6795   90.3013    7.6490 H       1  UNL1        0.1501
     23 C          59.1067   90.1707    6.1640 C.3     1  UNL1        0.1166
     24 C          59.7049   91.0064    5.0713 C.ar    1  UNL1       -0.0009
     25 C          58.8399   91.9506    4.2902 C.ar    1  UNL1       -0.0009
     26 C          59.4379   92.7862    3.1976 C.ar    1  UNL1        0.0239
     27 C          60.9013   92.6777    2.8860 C.ar    1  UNL1        0.1431
     28 N          61.7658   93.3687    1.8737 N.ar    1  UNL1       -0.0483
     29 O          63.1652   92.8516    2.0291 O.2     1  UNL1       -0.2415
     30 N          63.1656   91.8410    3.1375 N.ar    1  UNL1       -0.0483
     31 C          61.7663   91.7335    3.6671 C.ar    1  UNL1        0.1429
     32 C          61.1682   90.8978    4.7598 C.ar    1  UNL1        0.0215
@<TRIPOS>BOND
     1     2     1    1
     2     2     3    1
     3     3     4    1
     4     4     5    1
     5     5     6    1
     6     6     7    1
     7     7     8   ar
     8     8     9   ar
     9     9    19    1
    10    19    20    2
    11    19    21   am
    12    21    23    1
    13    23    24    1
    14    24    25   ar
    15    25    26   ar
    16    26    27   ar
    17    27    28   ar
    18    28    29   ar
    19    29    30   ar
    20    30    31   ar
    21    31    32   ar
    22     9    10   ar
    23    10    11    2
    24    10    12   ar
    25    12    13    1
    26    12    14   ar
    27    14    15    1
    28    15    16    2
    29    15    17   am
    30    17     2    1
    31    17     5    1
    32    14     7   ar
    33    32    24   ar
    34    31    27   ar
    35    21    22    1
    36    13    18    1
@<TRIPOS>MOLECULE
*****
 32 36 0 0 0
SMALL
GASTEIGER

@<TRIPOS>ATOM
      1 C          62.6243   79.7394   12.4274 C.3     1  UNL1        0.0243
      2 C          62.9978   81.0536   11.8083 C.3     1  UNL1        0.1075
      3 C          63.3064   81.2897   10.3595 C.3     1  UNL1        0.1638
      4 O          63.6275   82.7445   10.1851 O.3     1  UNL1       -0.3342
      5 C          63.5174   83.4075   11.5260 C.3     1  UNL1        0.2176
      6 C          63.7213   84.8279   11.9633 C.3     1  UNL1        0.1572
      7 N          63.5359   85.2031   13.4037 N.ar    1  UNL1       -0.3156
      8 C          63.7398   86.6235   13.8408 C.ar    1  UNL1        0.0840
      9 C          63.5545   86.9988   15.2812 C.ar    1  UNL1        0.1125
     10 C          63.1653   85.9538   16.2845 C.ar    1  UNL1        0.2364
     11 O          62.9799   86.3290   17.7249 O.2     1  UNL1       -0.2831
     12 C          62.9614   84.5335   15.8473 C.ar    1  UNL1        0.1936
     13 O          62.5722   83.4884   16.8505 O.3     1  UNL1       -0.5017
     14 C          63.1468   84.1582   14.4068 C.ar    1  UNL1        0.1517
     15 C          62.9429   82.7378   13.9697 C.2     1  UNL1        0.2698
     16 O          62.5537   81.6928   14.9730 O.2     1  UNL1       -0.2681
     17 N          63.1282   82.3625   12.5293 N.am    1  UNL1       -0.2504
     18 H          62.4564   83.7228   17.7503 H       1  UNL1        0.2924
     19 C          63.7583   88.4191   15.7184 C.2     1  UNL1        0.2508
     20 O          63.1827   88.8932   17.0200 O.2     1  UNL1       -0.2700
     21 N          64.5378   89.3653   14.8541 N.am    1  UNL1       -0.2968
     22 H          64.9156   89.0542   13.9999 H       1  UNL1        0.1501
     23 C          64.7417   90.7856   15.2914 C.3     1  UNL1        0.1166
     24 C          65.2920   91.7952   14.3281 C.ar    1  UNL1       -0.0009
     25 C          66.1929   92.8886   14.8210 C.ar    1  UNL1       -0.0009
     26 C          66.7433   93.8982   13.8579 C.ar    1  UNL1        0.0239
     27 C          66.3929   93.8145   12.4017 C.ar    1  UNL1        0.1431
     28 N          66.7810   94.6607   11.2257 N.ar    1  UNL1       -0.0483
     29 O          66.1200   94.0904   10.0060 O.2     1  UNL1       -0.2415
     30 N          65.3233   92.8916   10.4282 N.ar    1  UNL1       -0.0483
     31 C          65.4920   92.7211   11.9089 C.ar    1  UNL1        0.1429
     32 C          64.9415   91.7115   12.8721 C.ar    1  UNL1        0.0215
@<TRIPOS>BOND
     1     2     1    1
     2     2     3    1
     3     3     4    1
     4     4     5    1
     5     5     6    1
     6     6     7    1
     7     7     8   ar
     8     8     9   ar
     9     9    19    1
    10    19    20    2
    11    19    21   am
    12    21    23    1
    13    23    24    1
    14    24    25   ar
    15    25    26   ar
    16    26    27   ar
    17    27    28   ar
    18    28    29   ar
    19    29    30   ar
    20    30    31   ar
    21    31    32   ar
    22     9    10   ar
    23    10    11    2
    24    10    12   ar
    25    12    13    1
    26    12    14   ar
    27    14    15    1
    28    15    16    2
    29    15    17   am
    30    17     2    1
    31    17     5    1
    32    14     7   ar
    33    32    24   ar
    34    31    27   ar
    35    21    22    1
    36    13    18    1
@<TRIPOS>MOLECULE
*****
 32 36 0 0 0
SMALL
GASTEIGER

@<TRIPOS>ATOM
      1 C          62.0922   81.2732   14.3368 C.3     1  UNL1        0.0243
      2 C          62.5086   82.2886   13.3144 C.3     1  UNL1        0.1075
      3 C          62.6875   82.0393   11.8461 C.3     1  UNL1        0.1638
      4 O          63.1088   83.3283   11.2049 O.3     1  UNL1       -0.3342
      5 C          63.1903   84.3743   12.2769 C.3     1  UNL1        0.2176
      6 C          63.5543   85.8288   12.2344 C.3     1  UNL1        0.1572
      7 N          63.5474   86.6408   13.4956 N.ar    1  UNL1       -0.3156
      8 C          63.9115   88.0954   13.4530 C.ar    1  UNL1        0.0840
      9 C          63.9046   88.9074   14.7142 C.ar    1  UNL1        0.1125
     10 C          63.5337   88.2649   16.0180 C.ar    1  UNL1        0.2364
     11 O          63.5269   89.0769   17.2791 O.2     1  UNL1       -0.2831
     12 C          63.1697   86.8104   16.0605 C.ar    1  UNL1        0.1936
     13 O          62.7988   86.1679   17.3642 O.3     1  UNL1       -0.5017
     14 C          63.1766   85.9983   14.7992 C.ar    1  UNL1        0.1517
     15 C          62.8125   84.5437   14.8418 C.2     1  UNL1        0.2698
     16 O          62.4416   83.9013   16.1456 O.2     1  UNL1       -0.2681
     17 N          62.8194   83.7317   13.5806 N.am    1  UNL1       -0.2504
     18 H          62.7945   86.6751   18.1520 H       1  UNL1        0.2924
     19 C          64.2687   90.3619   14.6717 C.2     1  UNL1        0.2508
     20 O          63.4830   91.3555   15.4753 O.2     1  UNL1       -0.2700
     21 N          65.4183   90.8229   13.8257 N.am    1  UNL1       -0.2968
     22 H          65.9340   90.1708   13.2983 H       1  UNL1        0.1501
     23 C          65.7824   92.2774   13.7832 C.3     1  UNL1        0.1166
     24 C          66.2876   92.8872   12.5092 C.ar    1  UNL1       -0.0009
     25 C          66.9329   92.0218   11.4678 C.ar    1  UNL1       -0.0009
     26 C          67.4381   92.6314   10.1938 C.ar    1  UNL1        0.0239
     27 C          67.2980   94.1067    9.9613 C.ar    1  UNL1        0.1431
     28 N          67.6979   94.9841    8.8123 N.ar    1  UNL1       -0.0483
     29 O          67.2998   96.3918    9.1436 O.2     1  UNL1       -0.2415
     30 N          66.6538   96.3844   10.4973 N.ar    1  UNL1       -0.0483
     31 C          66.6527   94.9722   11.0027 C.ar    1  UNL1        0.1429
     32 C          66.1475   94.3624   12.2767 C.ar    1  UNL1        0.0215
@<TRIPOS>BOND
     1     2     1    1
     2     2     3    1
     3     3     4    1
     4     4     5    1
     5     5     6    1
     6     6     7    1
     7     7     8   ar
     8     8     9   ar
     9     9    19    1
    10    19    20    2
    11    19    21   am
    12    21    23    1
    13    23    24    1
    14    24    25   ar
    15    25    26   ar
    16    26    27   ar
    17    27    28   ar
    18    28    29   ar
    19    29    30   ar
    20    30    31   ar
    21    31    32   ar
    22     9    10   ar
    23    10    11    2
    24    10    12   ar
    25    12    13    1
    26    12    14   ar
    27    14    15    1
    28    15    16    2
    29    15    17   am
    30    17     2    1
    31    17     5    1
    32    14     7   ar
    33    32    24   ar
    34    31    27   ar
    35    21    22    1
    36    13    18    1
@<TRIPOS>MOLECULE
*****
 32 36 0 0 0
SMALL
GASTEIGER

@<TRIPOS>ATOM
      1 C          62.6709   79.4994   12.5631 C.3     1  UNL1        0.0243
      2 C          63.0106   80.7839   11.8670 C.3     1  UNL1        0.1075
      3 C          63.3167   80.9414   10.4070 C.3     1  UNL1        0.1638
      4 O          63.5992   82.3914   10.1463 O.3     1  UNL1       -0.3342
      5 C          63.4677   83.1300   11.4452 C.3     1  UNL1        0.2176
      6 C          63.6322   84.5788   11.7971 C.3     1  UNL1        0.1572
      7 N          63.4330   85.0342   13.2123 N.ar    1  UNL1       -0.3156
      8 C          63.5975   86.4831   13.5641 C.ar    1  UNL1        0.0840
      9 C          63.3983   86.9385   14.9794 C.ar    1  UNL1        0.1125
     10 C          63.0345   85.9451   16.0428 C.ar    1  UNL1        0.2364
     11 O          62.8353   86.4005   17.4581 O.2     1  UNL1       -0.2831
     12 C          62.8700   84.4963   15.6910 C.ar    1  UNL1        0.1936
     13 O          62.5063   83.5029   16.7544 O.3     1  UNL1       -0.5017
     14 C          63.0693   84.0409   14.2757 C.ar    1  UNL1        0.1517
     15 C          62.9047   82.5919   13.9239 C.2     1  UNL1        0.2698
     16 O          62.5410   81.5986   14.9873 O.2     1  UNL1       -0.2681
     17 N          63.1040   82.1366   12.5086 N.am    1  UNL1       -0.2504
     18 H          62.3818   83.7873   17.6384 H       1  UNL1        0.2924
     19 C          63.5628   88.3874   15.3312 C.2     1  UNL1        0.2508
     20 O          63.6493   88.8048   16.7694 O.2     1  UNL1       -0.2700
     21 N          63.6408   89.4188   14.2449 N.am    1  UNL1       -0.2968
     22 H          63.5840   89.1449   13.3010 H       1  UNL1        0.1501
     23 C          63.8053   90.8676   14.5968 C.3     1  UNL1        0.1166
     24 C          65.1772   91.4389   14.8004 C.ar    1  UNL1       -0.0009
     25 C          65.5065   92.1644   16.0713 C.ar    1  UNL1       -0.0009
     26 C          66.8783   92.7357   16.2751 C.ar    1  UNL1        0.0239
     27 C          67.9211   92.5815   15.2078 C.ar    1  UNL1        0.1431
     28 N          69.3486   93.0347   15.1263 N.ar    1  UNL1       -0.0483
     29 O          69.9016   92.5893   13.8050 O.2     1  UNL1       -0.2415
     30 N          68.8158   91.8609   13.0699 N.ar    1  UNL1       -0.0483
     31 C          67.5918   91.8561   13.9368 C.ar    1  UNL1        0.1429
     32 C          66.2199   91.2847   13.7331 C.ar    1  UNL1        0.0215
@<TRIPOS>BOND
     1     2     1    1
     2     2     3    1
     3     3     4    1
     4     4     5    1
     5     5     6    1
     6     6     7    1
     7     7     8   ar
     8     8     9   ar
     9     9    19    1
    10    19    20    2
    11    19    21   am
    12    21    23    1
    13    23    24    1
    14    24    25   ar
    15    25    26   ar
    16    26    27   ar
    17    27    28   ar
    18    28    29   ar
    19    29    30   ar
    20    30    31   ar
    21    31    32   ar
    22     9    10   ar
    23    10    11    2
    24    10    12   ar
    25    12    13    1
    26    12    14   ar
    27    14    15    1
    28    15    16    2
    29    15    17   am
    30    17     2    1
    31    17     5    1
    32    14     7   ar
    33    32    24   ar
    34    31    27   ar
    35    21    22    1
    36    13    18    1
@<TRIPOS>MOLECULE
*****
 32 36 0 0 0
SMALL
GASTEIGER

@<TRIPOS>ATOM
      1 C          62.6688   80.2629   11.9808 C.3     1  UNL1        0.0243
      2 C          63.2017   81.1982   13.0254 C.3     1  UNL1        0.1075
      3 C          63.8233   80.7998   14.3311 C.3     1  UNL1        0.1638
      4 O          64.2123   82.0515   15.0604 O.3     1  UNL1       -0.3342
      5 C          63.8311   83.2235   14.2055 C.3     1  UNL1        0.2176
      6 C          63.9721   84.7029   14.4096 C.3     1  UNL1        0.1572
      7 N          63.4884   85.6548   13.3562 N.ar    1  UNL1       -0.3156
      8 C          63.6294   87.1342   13.5604 C.ar    1  UNL1        0.0840
      9 C          63.1457   88.0862   12.5070 C.ar    1  UNL1        0.1125
     10 C          62.5210   87.5588   11.2492 C.ar    1  UNL1        0.2364
     11 O          62.0374   88.5108   10.1958 O.2     1  UNL1       -0.2831
     12 C          62.3801   86.0795   11.0450 C.ar    1  UNL1        0.1936
     13 O          61.7555   85.5521    9.7874 O.3     1  UNL1       -0.5017
     14 C          62.8638   85.1275   12.0986 C.ar    1  UNL1        0.1517
     15 C          62.7228   83.6481   11.8943 C.2     1  UNL1        0.2698
     16 O          62.0982   83.1208   10.6366 O.2     1  UNL1       -0.2681
     17 N          63.2065   82.6962   12.9478 N.am    1  UNL1       -0.2504
     18 H          61.4533   86.1468    9.1293 H       1  UNL1        0.2924
     19 C          63.2866   89.5655   12.7111 C.2     1  UNL1        0.2508
     20 O          62.7209   90.2100   13.9419 O.2     1  UNL1       -0.2700
     21 N          63.9932   90.4003   11.6846 N.am    1  UNL1       -0.2968
     22 H          64.3645   89.9773   10.8769 H       1  UNL1        0.1501
     23 C          64.1342   91.8797   11.8888 C.3     1  UNL1        0.1166
     24 C          65.2470   92.4168   12.7393 C.ar    1  UNL1       -0.0009
     25 C          65.7324   93.8219   12.5396 C.ar    1  UNL1       -0.0009
     26 C          66.8451   94.3591   13.3900 C.ar    1  UNL1        0.0239
     27 C          67.4725   93.4910   14.4402 C.ar    1  UNL1        0.1431
     28 N          68.5779   93.7435   15.4221 N.ar    1  UNL1       -0.0483
     29 O          68.7758   92.4944   16.2286 O.2     1  UNL1       -0.2415
     30 N          67.7926   91.4699   15.7452 N.ar    1  UNL1       -0.0483
     31 C          66.9871   92.0859   14.6399 C.ar    1  UNL1        0.1429
     32 C          65.8743   91.5487   13.7895 C.ar    1  UNL1        0.0215
@<TRIPOS>BOND
     1     2     1    1
     2     2     3    1
     3     3     4    1
     4     4     5    1
     5     5     6    1
     6     6     7    1
     7     7     8   ar
     8     8     9   ar
     9     9    19    1
    10    19    20    2
    11    19    21   am
    12    21    23    1
    13    23    24    1
    14    24    25   ar
    15    25    26   ar
    16    26    27   ar
    17    27    28   ar
    18    28    29   ar
    19    29    30   ar
    20    30    31   ar
    21    31    32   ar
    22     9    10   ar
    23    10    11    2
    24    10    12   ar
    25    12    13    1
    26    12    14   ar
    27    14    15    1
    28    15    16    2
    29    15    17   am
    30    17     2    1
    31    17     5    1
    32    14     7   ar
    33    32    24   ar
    34    31    27   ar
    35    21    22    1
    36    13    18    1
@<TRIPOS>MOLECULE
*****
 32 36 0 0 0
SMALL
GASTEIGER

@<TRIPOS>ATOM
      1 C          63.4655   95.0149   -1.1989 C.3     1  UNL1        0.0243
      2 C          63.9273   94.1148   -0.0914 C.3     1  UNL1        0.1075
      3 C          65.3428   93.6925    0.1693 C.3     1  UNL1        0.1638
      4 O          65.3451   92.7956    1.3716 O.3     1  UNL1       -0.3342
      5 C          63.9309   92.6635    1.8540 C.3     1  UNL1        0.2176
      6 C          63.3278   91.9062    2.9997 C.3     1  UNL1        0.1572
      7 N          61.8485   91.9642    3.2413 N.ar    1  UNL1       -0.3156
      8 C          61.2455   91.2068    4.3871 C.ar    1  UNL1        0.0840
      9 C          59.7662   91.2648    4.6286 C.ar    1  UNL1        0.1125
     10 C          58.8899   92.0800    3.7244 C.ar    1  UNL1        0.2364
     11 O          57.4106   92.1380    3.9660 O.2     1  UNL1       -0.2831
     12 C          59.4930   92.8374    2.5787 C.ar    1  UNL1        0.1936
     13 O          58.6168   93.6526    1.6745 O.3     1  UNL1       -0.5017
     14 C          60.9724   92.7794    2.3371 C.ar    1  UNL1        0.1517
     15 C          61.5754   93.5368    1.1913 C.2     1  UNL1        0.2698
     16 O          60.6991   94.3520    0.2871 O.2     1  UNL1       -0.2681
     17 N          63.0547   93.4788    0.9498 N.am    1  UNL1       -0.2504
     18 H          57.6927   93.6888    1.8253 H       1  UNL1        0.2924
     19 C          59.1631   90.5074    5.7744 C.2     1  UNL1        0.2508
     20 O          57.6791   90.5326    5.9918 O.2     1  UNL1       -0.2700
     21 N          60.0440   89.7250    6.7027 N.am    1  UNL1       -0.2968
     22 H          61.0180   89.7085    6.5600 H       1  UNL1        0.1501
     23 C          59.4409   88.9677    7.8485 C.3     1  UNL1        0.1166
     24 C          60.3266   88.3672    8.8997 C.ar    1  UNL1       -0.0009
     25 C          60.4945   86.8787    8.9782 C.ar    1  UNL1       -0.0009
     26 C          61.3801   86.2782   10.0293 C.ar    1  UNL1        0.0239
     27 C          62.0980   87.1662   11.0021 C.ar    1  UNL1        0.1431
     28 N          63.0303   86.8641   12.1376 N.ar    1  UNL1       -0.0483
     29 O          63.4386   88.1659   12.7609 O.2     1  UNL1       -0.2415
     30 N          62.7587   89.2726   12.0106 N.ar    1  UNL1       -0.0483
     31 C          61.9301   88.6547   10.9236 C.ar    1  UNL1        0.1429
     32 C          61.0444   89.2552    9.8724 C.ar    1  UNL1        0.0215
@<TRIPOS>BOND
     1     2     1    1
     2     2     3    1
     3     3     4    1
     4     4     5    1
     5     5     6    1
     6     6     7    1
     7     7     8   ar
     8     8     9   ar
     9     9    19    1
    10    19    20    2
    11    19    21   am
    12    21    23    1
    13    23    24    1
    14    24    25   ar
    15    25    26   ar
    16    26    27   ar
    17    27    28   ar
    18    28    29   ar
    19    29    30   ar
    20    30    31   ar
    21    31    32   ar
    22     9    10   ar
    23    10    11    2
    24    10    12   ar
    25    12    13    1
    26    12    14   ar
    27    14    15    1
    28    15    16    2
    29    15    17   am
    30    17     2    1
    31    17     5    1
    32    14     7   ar
    33    32    24   ar
    34    31    27   ar
    35    21    22    1
    36    13    18    1
