@<TRIPOS>MOLECULE
*****
 24 26 0 0 0
SMALL
GASTEIGER

@<TRIPOS>ATOM
      1 C          62.6620   89.2897   10.8775 C.ar    1  UNL1        0.0188
      2 C          62.9424   88.8821   12.2936 C.ar    1  UNL1        0.0046
      3 C          63.6822   89.8117   13.2091 C.ar    1  UNL1        0.0369
      4 C          64.1417   91.1491   12.7087 C.ar    1  UNL1        0.1386
      5 C          63.8612   91.5567   11.2926 C.ar    1  UNL1        0.0369
      6 C          63.1214   90.6270   10.3771 C.ar    1  UNL1        0.0046
      7 C          59.9050   89.9971    9.9294 C.3     1  UNL1        0.0285
      8 C          60.5437   88.7136    9.4879 C.2     1  UNL1       -0.0155
      9 C          59.8039   87.7839    8.5724 C.3     1  UNL1        0.1122
     10 C          60.4425   86.5005    8.1309 C.2     1  UNL1        0.2668
     11 O          59.7026   85.5707    7.2153 O.2     1  UNL1       -0.2711
     12 N          61.8210   86.1468    8.6049 N.am    1  UNL1       -0.0790
     13 N          62.5607   87.0765    9.5204 N.2     1  UNL1       -0.1568
     14 C          61.9221   88.3599    9.9619 C.2     1  UNL1        0.0931
     15 O          64.8815   92.0788   13.6243 O.3     1  UNL1       -0.4754
     16 C          66.2268   91.6893   14.1614 C.3     1  UNL1        0.2068
     17 C          67.4724   92.0980   13.4323 C.3     1  UNL1        0.0646
     18 C          67.5433   91.9713   11.9394 C.3     1  UNL1        0.0759
     19 N          67.2559   93.1604   11.0713 N.3     1  UNL1       -0.2738
     20 C          66.4158   94.3446   11.4480 C.3     1  UNL1        0.0721
     21 C          66.3989   95.2901   10.2836 C.3     1  UNL1        0.0187
     22 C          67.2286   94.6903    9.1873 C.3     1  UNL1        0.0174
     23 C          67.7582   93.3741    9.6741 C.3     1  UNL1        0.0576
     24 C          68.6361   92.4361    8.8997 C.3     1  UNL1        0.0173
@<TRIPOS>BOND
     1     7     8    1
     2     8     9    1
     3     9    10    1
     4    10    11    2
     5    10    12    1
     6    12    13    2
     7    13    14    1
     8    14     1    1
     9     1     2   ar
    10     2     3   ar
    11     3     4   ar
    12     4    15    1
    13    15    16    1
    14    16    17    1
    15    17    18    1
    16    18    19    1
    17    19    20    1
    18    20    21    1
    19    21    22    1
    20    22    23    1
    21    23    24    1
    22     4     5   ar
    23     5     6   ar
    24    14     8    2
    25     6     1   ar
    26    23    19    1
@<TRIPOS>MOLECULE
*****
 24 26 0 0 0
SMALL
GASTEIGER

@<TRIPOS>ATOM
      1 C          65.0170   90.8060   13.5580 C.ar    1  UNL1        0.0188
      2 C          64.6774   89.4544   14.1129 C.ar    1  UNL1        0.0046
      3 C          63.5974   88.6317   13.4752 C.ar    1  UNL1        0.0369
      4 C          62.8570   89.1604   12.2825 C.ar    1  UNL1        0.1386
      5 C          63.1967   90.5120   11.7276 C.ar    1  UNL1        0.0369
      6 C          64.2767   91.3348   12.3654 C.ar    1  UNL1        0.0046
      7 C          64.6107   91.9468   16.3027 C.3     1  UNL1        0.0285
      8 C          65.8939   92.1991   15.5680 C.2     1  UNL1       -0.0155
      9 C          66.9739   93.0219   16.2057 C.3     1  UNL1        0.1122
     10 C          68.2571   93.2742   15.4710 C.2     1  UNL1        0.2668
     11 O          69.3371   94.0970   16.1088 O.2     1  UNL1       -0.2711
     12 N          68.4603   92.7039   14.0987 N.am    1  UNL1       -0.0790
     13 N          67.3803   91.8811   13.4610 N.2     1  UNL1       -0.1568
     14 C          66.0971   91.6288   14.1957 C.2     1  UNL1        0.0931
     15 O          61.7771   88.3377   11.6449 O.3     1  UNL1       -0.4754
     16 C          62.1327   87.1009   10.8742 C.3     1  UNL1        0.2068
     17 C          61.8823   85.7476   11.4708 C.3     1  UNL1        0.0646
     18 C          62.9322   85.0973   12.3221 C.3     1  UNL1        0.0759
     19 N          62.8565   83.6280   12.6146 N.3     1  UNL1       -0.2738
     20 C          62.2909   83.0040   13.8558 C.3     1  UNL1        0.0721
     21 C          62.4180   81.5151   13.7255 C.3     1  UNL1        0.0187
     22 C          63.0623   81.2189   12.4036 C.3     1  UNL1        0.0174
     23 C          63.3333   82.5247   11.7171 C.3     1  UNL1        0.0576
     24 C          63.9694   82.6971   10.3695 C.3     1  UNL1        0.0173
@<TRIPOS>BOND
     1     7     8    1
     2     8     9    1
     3     9    10    1
     4    10    11    2
     5    10    12    1
     6    12    13    2
     7    13    14    1
     8    14     1    1
     9     1     2   ar
    10     2     3   ar
    11     3     4   ar
    12     4    15    1
    13    15    16    1
    14    16    17    1
    15    17    18    1
    16    18    19    1
    17    19    20    1
    18    20    21    1
    19    21    22    1
    20    22    23    1
    21    23    24    1
    22     4     5   ar
    23     5     6   ar
    24    14     8    2
    25     6     1   ar
    26    23    19    1
@<TRIPOS>MOLECULE
*****
 24 26 0 0 0
SMALL
GASTEIGER

@<TRIPOS>ATOM
      1 C          64.5428   90.3711   14.6033 C.ar    1  UNL1        0.0188
      2 C          63.8026   90.7891   15.8392 C.ar    1  UNL1        0.0046
      3 C          63.1571   89.7547   16.7127 C.ar    1  UNL1        0.0369
      4 C          63.2518   88.3021   16.3505 C.ar    1  UNL1        0.1386
      5 C          63.9920   87.8841   15.1146 C.ar    1  UNL1        0.0369
      6 C          64.6375   88.9186   14.2410 C.ar    1  UNL1        0.0046
      7 C          63.4179   90.9513   11.8834 C.3     1  UNL1        0.0285
      8 C          64.6259   91.6957   12.3698 C.2     1  UNL1       -0.0155
      9 C          65.2714   92.7302   11.4963 C.3     1  UNL1        0.1122
     10 C          66.4794   93.4747   11.9827 C.2     1  UNL1        0.2668
     11 O          67.1249   94.5092   11.1092 O.2     1  UNL1       -0.2711
     12 N          67.0419   93.1846   13.3427 N.am    1  UNL1       -0.0790
     13 N          66.3963   92.1501   14.2162 N.2     1  UNL1       -0.1568
     14 C          65.1884   91.4057   13.7297 C.2     1  UNL1        0.0931
     15 O          62.6063   87.2676   17.2240 O.3     1  UNL1       -0.4754
     16 C          62.9942   85.8249   17.0900 C.3     1  UNL1        0.2068
     17 C          62.3163   84.9574   16.0713 C.3     1  UNL1        0.0646
     18 C          62.9839   83.7031   15.5907 C.3     1  UNL1        0.0759
     19 N          63.0124   83.3827   14.1256 N.3     1  UNL1       -0.2738
     20 C          63.7283   84.1661   13.0655 C.3     1  UNL1        0.0721
     21 C          63.4883   83.4902   11.7481 C.3     1  UNL1        0.0187
     22 C          62.6241   82.2891   11.9939 C.3     1  UNL1        0.0174
     23 C          62.3300   82.2226   13.4633 C.3     1  UNL1        0.0576
     24 C          61.4993   81.1793   14.1500 C.3     1  UNL1        0.0173
@<TRIPOS>BOND
     1     7     8    1
     2     8     9    1
     3     9    10    1
     4    10    11    2
     5    10    12    1
     6    12    13    2
     7    13    14    1
     8    14     1    1
     9     1     2   ar
    10     2     3   ar
    11     3     4   ar
    12     4    15    1
    13    15    16    1
    14    16    17    1
    15    17    18    1
    16    18    19    1
    17    19    20    1
    18    20    21    1
    19    21    22    1
    20    22    23    1
    21    23    24    1
    22     4     5   ar
    23     5     6   ar
    24    14     8    2
    25     6     1   ar
    26    23    19    1
@<TRIPOS>MOLECULE
*****
 24 26 0 0 0
SMALL
GASTEIGER

@<TRIPOS>ATOM
      1 C          65.1348   91.0052   13.6424 C.ar    1  UNL1        0.0188
      2 C          64.4152   91.5984   12.4675 C.ar    1  UNL1        0.0046
      3 C          63.2609   90.8679   11.8480 C.ar    1  UNL1        0.0369
      4 C          62.8260   89.5440   12.4034 C.ar    1  UNL1        0.1386
      5 C          63.5456   88.9508   13.5783 C.ar    1  UNL1        0.0369
      6 C          64.7000   89.6814   14.1977 C.ar    1  UNL1        0.0046
      7 C          64.8633   92.1876   16.3861 C.3     1  UNL1        0.0285
      8 C          66.1534   92.3270   15.6337 C.2     1  UNL1       -0.0155
      9 C          67.3077   93.0576   16.2531 C.3     1  UNL1        0.1122
     10 C          68.5978   93.1970   15.5006 C.2     1  UNL1        0.2668
     11 O          69.7522   93.9276   16.1201 O.2     1  UNL1       -0.2711
     12 N          68.7336   92.6058   14.1287 N.am    1  UNL1       -0.0790
     13 N          67.5792   91.8752   13.5094 N.2     1  UNL1       -0.1568
     14 C          66.2891   91.7358   14.2618 C.2     1  UNL1        0.0931
     15 O          61.6717   88.8135   11.7840 O.3     1  UNL1       -0.4754
     16 C          61.4141   88.9297   10.3108 C.3     1  UNL1        0.2068
     17 C          61.4278   87.7029    9.4479 C.3     1  UNL1        0.0646
     18 C          61.0299   86.3763   10.0239 C.3     1  UNL1        0.0759
     19 N          62.0790   85.3542   10.3479 N.3     1  UNL1       -0.2738
     20 C          62.3995   84.8220   11.7132 C.3     1  UNL1        0.0721
     21 C          63.5103   83.8238   11.5726 C.3     1  UNL1        0.0187
     22 C          63.8764   83.7392   10.1203 C.3     1  UNL1        0.0174
     23 C          62.9918   84.6851    9.3635 C.3     1  UNL1        0.0576
     24 C          63.0157   84.9205    7.8822 C.3     1  UNL1        0.0173
@<TRIPOS>BOND
     1     7     8    1
     2     8     9    1
     3     9    10    1
     4    10    11    2
     5    10    12    1
     6    12    13    2
     7    13    14    1
     8    14     1    1
     9     1     2   ar
    10     2     3   ar
    11     3     4   ar
    12     4    15    1
    13    15    16    1
    14    16    17    1
    15    17    18    1
    16    18    19    1
    17    19    20    1
    18    20    21    1
    19    21    22    1
    20    22    23    1
    21    23    24    1
    22     4     5   ar
    23     5     6   ar
    24    14     8    2
    25     6     1   ar
    26    23    19    1
@<TRIPOS>MOLECULE
*****
 24 26 0 0 0
SMALL
GASTEIGER

@<TRIPOS>ATOM
      1 C          64.4014   89.4203   14.8947 C.ar    1  UNL1        0.0188
      2 C          64.8028   88.0669   14.3875 C.ar    1  UNL1        0.0046
      3 C          64.2873   86.8301   15.0617 C.ar    1  UNL1        0.0369
      4 C          63.3704   86.9467   16.2432 C.ar    1  UNL1        0.1386
      5 C          62.9691   88.3001   16.7504 C.ar    1  UNL1        0.0369
      6 C          63.4846   89.5369   16.0761 C.ar    1  UNL1        0.0046
      7 C          63.3021   90.2437   12.2275 C.3     1  UNL1        0.0285
      8 C          64.3673   91.0688   12.8868 C.2     1  UNL1       -0.0155
      9 C          64.8828   92.3055   12.2126 C.3     1  UNL1        0.1122
     10 C          65.9480   93.1306   12.8718 C.2     1  UNL1        0.2668
     11 O          66.4635   94.3674   12.1975 O.2     1  UNL1       -0.2711
     12 N          66.4976   92.7189   14.2054 N.am    1  UNL1       -0.0790
     13 N          65.9821   91.4822   14.8796 N.2     1  UNL1       -0.1568
     14 C          64.9169   90.6571   14.2203 C.2     1  UNL1        0.0931
     15 O          62.8550   85.7100   16.9175 O.3     1  UNL1       -0.4754
     16 C          62.1436   84.6601   16.1164 C.3     1  UNL1        0.2068
     17 C          62.9223   83.7491   15.2145 C.3     1  UNL1        0.0646
     18 C          62.2275   83.0224   14.1013 C.3     1  UNL1        0.0759
     19 N          62.8531   82.9627   12.7392 N.3     1  UNL1       -0.2738
     20 C          63.4780   81.7539   12.1082 C.3     1  UNL1        0.0721
     21 C          63.9747   82.1454   10.7480 C.3     1  UNL1        0.0187
     22 C          63.6566   83.5963   10.5384 C.3     1  UNL1        0.0174
     23 C          62.9635   84.1014   11.7690 C.3     1  UNL1        0.0576
     24 C          62.4677   85.4997   11.9906 C.3     1  UNL1        0.0173
@<TRIPOS>BOND
     1     7     8    1
     2     8     9    1
     3     9    10    1
     4    10    11    2
     5    10    12    1
     6    12    13    2
     7    13    14    1
     8    14     1    1
     9     1     2   ar
    10     2     3   ar
    11     3     4   ar
    12     4    15    1
    13    15    16    1
    14    16    17    1
    15    17    18    1
    16    18    19    1
    17    19    20    1
    18    20    21    1
    19    21    22    1
    20    22    23    1
    21    23    24    1
    22     4     5   ar
    23     5     6   ar
    24    14     8    2
    25     6     1   ar
    26    23    19    1
@<TRIPOS>MOLECULE
*****
 24 26 0 0 0
SMALL
GASTEIGER

@<TRIPOS>ATOM
      1 C          63.7070   85.9850   15.1876 C.ar    1  UNL1        0.0188
      2 C          62.5275   85.1119   15.4982 C.ar    1  UNL1        0.0046
      3 C          62.5645   83.6518   15.1564 C.ar    1  UNL1        0.0369
      4 C          63.7810   83.0648   14.5041 C.ar    1  UNL1        0.1386
      5 C          64.9605   83.9378   14.1935 C.ar    1  UNL1        0.0369
      6 C          64.9235   85.3980   14.5352 C.ar    1  UNL1        0.0046
      7 C          62.6980   86.8727   17.8697 C.3     1  UNL1        0.0285
      8 C          63.1655   87.8889   16.8704 C.2     1  UNL1       -0.0155
      9 C          63.1285   89.3490   17.2121 C.3     1  UNL1        0.1122
     10 C          63.5960   90.3652   16.2127 C.2     1  UNL1        0.2668
     11 O          63.5590   91.8254   16.5545 O.2     1  UNL1       -0.2711
     12 N          64.1005   89.9214   14.8717 N.am    1  UNL1       -0.0790
     13 N          64.1375   88.4613   14.5300 N.2     1  UNL1       -0.1568
     14 C          63.6700   87.4451   15.5293 C.2     1  UNL1        0.0931
     15 O          63.8179   81.6047   14.1624 O.3     1  UNL1       -0.4754
     16 C          63.6598   81.1637   12.7374 C.3     1  UNL1        0.2068
     17 C          62.8329   81.9784   11.7875 C.3     1  UNL1        0.0646
     18 C          63.4874   83.0134   10.9212 C.3     1  UNL1        0.0759
     19 N          62.8690   84.3727   10.7795 N.3     1  UNL1       -0.2738
     20 C          62.2614   85.1846   11.8847 C.3     1  UNL1        0.0721
     21 C          61.7666   86.4724   11.2959 C.3     1  UNL1        0.0187
     22 C          62.0685   86.4565    9.8266 C.3     1  UNL1        0.0174
     23 C          62.7498   85.1588    9.5075 C.3     1  UNL1        0.0576
     24 C          63.2280   84.7236    8.1540 C.3     1  UNL1        0.0173
@<TRIPOS>BOND
     1     7     8    1
     2     8     9    1
     3     9    10    1
     4    10    11    2
     5    10    12    1
     6    12    13    2
     7    13    14    1
     8    14     1    1
     9     1     2   ar
    10     2     3   ar
    11     3     4   ar
    12     4    15    1
    13    15    16    1
    14    16    17    1
    15    17    18    1
    16    18    19    1
    17    19    20    1
    18    20    21    1
    19    21    22    1
    20    22    23    1
    21    23    24    1
    22     4     5   ar
    23     5     6   ar
    24    14     8    2
    25     6     1   ar
    26    23    19    1
@<TRIPOS>MOLECULE
*****
 24 26 0 0 0
SMALL
GASTEIGER

@<TRIPOS>ATOM
      1 C          65.0850   90.7850   13.5778 C.ar    1  UNL1        0.0188
      2 C          64.2307   91.3853   12.5008 C.ar    1  UNL1        0.0046
      3 C          63.1449   90.5702   11.8632 C.ar    1  UNL1        0.0369
      4 C          62.9132   89.1548   12.3027 C.ar    1  UNL1        0.1386
      5 C          63.7675   88.5545   13.3797 C.ar    1  UNL1        0.0369
      6 C          64.8534   89.3697   14.0173 C.ar    1  UNL1        0.0046
      7 C          64.7130   91.8742   16.3483 C.3     1  UNL1        0.0285
      8 C          65.9849   92.1448   15.6005 C.2     1  UNL1       -0.0155
      9 C          67.0707   92.9599   16.2380 C.3     1  UNL1        0.1122
     10 C          68.3426   93.2305   15.4903 C.2     1  UNL1        0.2668
     11 O          69.4285   94.0457   16.1278 O.2     1  UNL1       -0.2711
     12 N          68.5286   92.6859   14.1051 N.am    1  UNL1       -0.0790
     13 N          67.4428   91.8708   13.4676 N.2     1  UNL1       -0.1568
     14 C          66.1709   91.6002   14.2153 C.2     1  UNL1        0.0931
     15 O          61.8274   88.3397   11.6652 O.3     1  UNL1       -0.4754
     16 C          62.0973   87.5973   10.3900 C.3     1  UNL1        0.2068
     17 C          62.2732   86.1078   10.4122 C.3     1  UNL1        0.0646
     18 C          62.0693   85.3474   11.6890 C.3     1  UNL1        0.0759
     19 N          62.9388   84.1669   12.0060 N.3     1  UNL1       -0.2738
     20 C          63.6936   83.3355   11.0115 C.3     1  UNL1        0.0721
     21 C          64.4275   82.2654   11.7640 C.3     1  UNL1        0.0187
     22 C          64.1263   82.4355   13.2236 C.3     1  UNL1        0.0174
     23 C          63.2063   83.6107   13.3731 C.3     1  UNL1        0.0576
     24 C          62.6511   84.1373   14.6633 C.3     1  UNL1        0.0173
@<TRIPOS>BOND
     1     7     8    1
     2     8     9    1
     3     9    10    1
     4    10    11    2
     5    10    12    1
     6    12    13    2
     7    13    14    1
     8    14     1    1
     9     1     2   ar
    10     2     3   ar
    11     3     4   ar
    12     4    15    1
    13    15    16    1
    14    16    17    1
    15    17    18    1
    16    18    19    1
    17    19    20    1
    18    20    21    1
    19    21    22    1
    20    22    23    1
    21    23    24    1
    22     4     5   ar
    23     5     6   ar
    24    14     8    2
    25     6     1   ar
    26    23    19    1
@<TRIPOS>MOLECULE
*****
 24 26 0 0 0
SMALL
GASTEIGER

@<TRIPOS>ATOM
      1 C          63.1357   84.3595   14.8008 C.ar    1  UNL1        0.0188
      2 C          64.1945   85.3693   14.4705 C.ar    1  UNL1        0.0046
      3 C          64.2974   86.6361   15.2671 C.ar    1  UNL1        0.0369
      4 C          63.3413   86.8932   16.3940 C.ar    1  UNL1        0.1386
      5 C          62.2825   85.8833   16.7243 C.ar    1  UNL1        0.0369
      6 C          62.1797   84.6165   15.9277 C.ar    1  UNL1        0.0046
      7 C          62.5270   84.4785   11.8656 C.3     1  UNL1        0.0285
      8 C          62.7286   83.1522   12.5366 C.2     1  UNL1       -0.0155
      9 C          62.6258   81.8854   11.7400 C.3     1  UNL1        0.1122
     10 C          62.8273   80.5590   12.4110 C.2     1  UNL1        0.2668
     11 O          62.7245   79.2922   11.6143 O.2     1  UNL1       -0.2711
     12 N          63.1316   80.4995   13.8785 N.am    1  UNL1       -0.0790
     13 N          63.2344   81.7663   14.6751 N.2     1  UNL1       -0.1568
     14 C          63.0329   83.0926   14.0041 C.2     1  UNL1        0.0931
     15 O          63.4442   88.1600   17.1906 O.3     1  UNL1       -0.4754
     16 C          62.9596   89.4542   16.6073 C.3     1  UNL1        0.2068
     17 C          63.5147   89.9431   15.3024 C.3     1  UNL1        0.0646
     18 C          64.5438   91.0342   15.2869 C.3     1  UNL1        0.0759
     19 N          64.9451   91.6683   13.9880 N.3     1  UNL1       -0.2738
     20 C          64.3314   91.3953   12.6469 C.3     1  UNL1        0.0721
     21 C          65.0375   92.2450   11.6323 C.3     1  UNL1        0.0187
     22 C          66.0877   93.0432   12.3465 C.3     1  UNL1        0.0174
     23 C          66.0306   92.6868   13.8024 C.3     1  UNL1        0.0576
     24 C          66.9053   93.2500   14.8830 C.3     1  UNL1        0.0173
@<TRIPOS>BOND
     1     7     8    1
     2     8     9    1
     3     9    10    1
     4    10    11    2
     5    10    12    1
     6    12    13    2
     7    13    14    1
     8    14     1    1
     9     1     2   ar
    10     2     3   ar
    11     3     4   ar
    12     4    15    1
    13    15    16    1
    14    16    17    1
    15    17    18    1
    16    18    19    1
    17    19    20    1
    18    20    21    1
    19    21    22    1
    20    22    23    1
    21    23    24    1
    22     4     5   ar
    23     5     6   ar
    24    14     8    2
    25     6     1   ar
    26    23    19    1
@<TRIPOS>MOLECULE
*****
 24 26 0 0 0
SMALL
GASTEIGER

@<TRIPOS>ATOM
      1 C          63.0388   86.6037   12.6641 C.ar    1  UNL1        0.0188
      2 C          63.7646   87.5899   13.5305 C.ar    1  UNL1        0.0046
      3 C          63.8036   89.0393   13.1465 C.ar    1  UNL1        0.0369
      4 C          63.1169   89.5027   11.8960 C.ar    1  UNL1        0.1386
      5 C          62.3911   88.5166   11.0296 C.ar    1  UNL1        0.0369
      6 C          62.3521   87.0670   11.4136 C.ar    1  UNL1        0.0046
      7 C          63.2223   84.4856   10.5474 C.3     1  UNL1        0.0285
      8 C          63.0915   84.0952   11.9898 C.2     1  UNL1       -0.0155
      9 C          63.0525   82.6457   12.3739 C.3     1  UNL1        0.1122
     10 C          62.9218   82.2553   13.8163 C.2     1  UNL1        0.2668
     11 O          62.8828   80.8058   14.2003 O.2     1  UNL1       -0.2711
     12 N          62.8300   83.3143   14.8746 N.am    1  UNL1       -0.0790
     13 N          62.8690   84.7637   14.4905 N.2     1  UNL1       -0.1568
     14 C          62.9998   85.1542   13.0481 C.2     1  UNL1        0.0931
     15 O          63.1559   90.9522   11.5120 O.3     1  UNL1       -0.4754
     16 C          64.4738   91.6496   11.3489 C.3     1  UNL1        0.2068
     17 C          65.1951   92.1811   12.5519 C.3     1  UNL1        0.0646
     18 C          66.5672   92.7691   12.4047 C.3     1  UNL1        0.0759
     19 N          67.1321   93.0219   11.0383 N.3     1  UNL1       -0.2738
     20 C          68.0265   92.0957   10.2687 C.3     1  UNL1        0.0721
     21 C          68.3490   92.7467    8.9564 C.3     1  UNL1        0.0187
     22 C          67.6539   94.0753    8.9149 C.3     1  UNL1        0.0174
     23 C          66.9019   94.2454   10.2015 C.3     1  UNL1        0.0576
     24 C          66.0662   95.4309   10.5843 C.3     1  UNL1        0.0173
@<TRIPOS>BOND
     1     7     8    1
     2     8     9    1
     3     9    10    1
     4    10    11    2
     5    10    12    1
     6    12    13    2
     7    13    14    1
     8    14     1    1
     9     1     2   ar
    10     2     3   ar
    11     3     4   ar
    12     4    15    1
    13    15    16    1
    14    16    17    1
    15    17    18    1
    16    18    19    1
    17    19    20    1
    18    20    21    1
    19    21    22    1
    20    22    23    1
    21    23    24    1
    22     4     5   ar
    23     5     6   ar
    24    14     8    2
    25     6     1   ar
    26    23    19    1
