@<TRIPOS>MOLECULE
*****
 23 25 0 0 0
SMALL
GASTEIGER

@<TRIPOS>ATOM
      1 C          65.7162   92.6855   12.1582 C.2     1  UNL1        0.2525
      2 O          66.0626   93.5315   10.9690 O.2     1  UNL1       -0.2723
      3 N          64.5996   91.6879   12.0692 N.am    1  UNL1       -0.2775
      4 C          64.2532   90.8419   13.2585 C.3     1  UNL1        0.0952
      5 C          63.1365   89.8443   13.1695 C.3     1  UNL1        0.0410
      6 C          62.3662   89.6927   11.8912 C.3     1  UNL1        0.0722
      7 C          62.7127   90.5387   10.7020 C.3     1  UNL1        0.0410
      8 C          63.8294   91.5363   10.7910 C.3     1  UNL1        0.0952
      9 C          67.6732   91.9600   13.7054 C.3     1  UNL1        0.0417
     10 C          66.4864   92.8370   13.4364 C.3     1  UNL1        0.1869
     11 O          66.0698   93.8656   14.4456 O.3     1  UNL1       -0.3758
     12 H          66.6689   93.8320   15.2077 H       1  UNL1        0.2110
     13 N          61.2496   88.6951   11.8022 N.pl3   1  UNL1       -0.3369
     14 H          60.6308   88.5800   12.5592 H       1  UNL1        0.1465
     15 C          61.0759   87.8728   10.5597 C.2     1  UNL1        0.0262
     16 C          59.7798   87.9172    9.8061 C.2     1  UNL1        0.0118
     17 C          59.6060   87.0949    8.5636 C.2     1  UNL1        0.0216
     18 C          60.7285   86.2282    8.0749 C.2     1  UNL1        0.1008
     19 N          60.8489   85.3145    6.8914 N.2     1  UNL1       -0.1482
     20 N          62.2195   84.7054    6.9136 N.2     1  UNL1       -0.1467
     21 C          62.9462   85.2426    8.1109 C.2     1  UNL1        0.1198
     22 C          62.0247   86.1838    8.8286 C.2     1  UNL1        0.0238
     23 C          62.1983   87.0061   10.0710 C.3     1  UNL1        0.0703
@<TRIPOS>BOND
     1    10     9    1
     2    10    11    1
     3    10     1    1
     4     1     2    2
     5     1     3   am
     6     3     4    1
     7     4     5    1
     8     5     6    1
     9     6    13    1
    10    13    15    1
    11    15    16    2
    12    16    17    1
    13    17    18    2
    14    18    19    1
    15    19    20    2
    16    20    21    1
    17    21    22    2
    18    22    23    1
    19     6     7    1
    20     7     8    1
    21     8     3    1
    22    23    15    1
    23    22    18    1
    24    11    12    1
    25    13    14    1
@<TRIPOS>MOLECULE
*****
 23 25 0 0 0
SMALL
GASTEIGER

@<TRIPOS>ATOM
      1 C          66.2926   93.2005   11.6554 C.2     1  UNL1        0.2525
      2 O          67.1473   93.5195   12.8461 O.2     1  UNL1       -0.2723
      3 N          65.1442   92.2451   11.7909 N.am    1  UNL1       -0.2775
      4 C          64.2895   91.9261   10.6002 C.3     1  UNL1        0.0952
      5 C          63.1412   90.9706   10.7356 C.3     1  UNL1        0.0410
      6 C          62.8475   90.3340   12.0618 C.3     1  UNL1        0.0722
      7 C          63.7022   90.6530   13.2525 C.3     1  UNL1        0.0410
      8 C          64.8506   91.6086   13.1170 C.3     1  UNL1        0.0952
      9 C          67.7127   93.3221    9.4832 C.3     1  UNL1        0.0417
     10 C          66.5862   93.8370   10.3293 C.3     1  UNL1        0.1869
     11 O          65.7533   94.9885    9.8492 O.3     1  UNL1       -0.3758
     12 H          66.0737   95.2795    8.9811 H       1  UNL1        0.2110
     13 N          61.6992   89.3786   12.1973 N.pl3   1  UNL1       -0.3369
     14 H          61.1375   89.3955   13.0056 H       1  UNL1        0.1465
     15 C          61.4068   88.3972   11.1011 C.2     1  UNL1        0.0262
     16 C          62.1908   87.1220   11.0072 C.2     1  UNL1        0.0118
     17 C          61.8984   86.1407    9.9110 C.2     1  UNL1        0.0216
     18 C          60.8219   86.4348    8.9087 C.2     1  UNL1        0.1008
     19 N          60.3125   85.6633    7.7274 N.2     1  UNL1       -0.1482
     20 N          59.2136   86.4619    7.0913 N.2     1  UNL1       -0.1467
     21 C          59.0438   87.7268    7.8793 C.2     1  UNL1        0.1198
     22 C          60.0378   87.7101    9.0026 C.2     1  UNL1        0.0238
     23 C          60.3302   88.6913   10.0988 C.3     1  UNL1        0.0703
@<TRIPOS>BOND
     1    10     9    1
     2    10    11    1
     3    10     1    1
     4     1     2    2
     5     1     3   am
     6     3     4    1
     7     4     5    1
     8     5     6    1
     9     6    13    1
    10    13    15    1
    11    15    16    2
    12    16    17    1
    13    17    18    2
    14    18    19    1
    15    19    20    2
    16    20    21    1
    17    21    22    2
    18    22    23    1
    19     6     7    1
    20     7     8    1
    21     8     3    1
    22    23    15    1
    23    22    18    1
    24    11    12    1
    25    13    14    1
@<TRIPOS>MOLECULE
*****
 23 25 0 0 0
SMALL
GASTEIGER

@<TRIPOS>ATOM
      1 C          60.5654   87.0246    8.4458 C.2     1  UNL1        0.2525
      2 O          61.3642   85.8695    7.9188 O.2     1  UNL1       -0.2723
      3 N          61.0161   87.7466    9.6809 N.am    1  UNL1       -0.2775
      4 C          60.2172   88.9017   10.2080 C.3     1  UNL1        0.0952
      5 C          60.6679   89.6238   11.4431 C.3     1  UNL1        0.0410
      6 C          61.9174   89.1909   12.1512 C.3     1  UNL1        0.0722
      7 C          62.7162   88.0358   11.6241 C.3     1  UNL1        0.0410
      8 C          62.2655   87.3137   10.3889 C.3     1  UNL1        0.0952
      9 C          59.2719   88.7831    7.0371 C.3     1  UNL1        0.0417
     10 C          59.3159   87.4575    7.7378 C.3     1  UNL1        0.1869
     11 O          58.1104   86.5650    7.7305 O.3     1  UNL1       -0.3758
     12 H          57.3953   86.9916    7.2330 H       1  UNL1        0.2110
     13 N          62.3681   89.9129   13.3863 N.pl3   1  UNL1       -0.3369
     14 H          61.8496   89.8342   14.2194 H       1  UNL1        0.1465
     15 C          63.6091   90.7550   13.3519 C.2     1  UNL1        0.0262
     16 C          64.4764   90.8626   14.5709 C.2     1  UNL1        0.0118
     17 C          65.7173   91.7047   14.5365 C.2     1  UNL1        0.0216
     18 C          66.0907   92.4392   13.2831 C.2     1  UNL1        0.1008
     19 N          67.2452   93.3381   12.9527 N.2     1  UNL1       -0.1482
     20 N          67.0912   93.7861   11.5295 N.2     1  UNL1       -0.1467
     21 C          65.8417   93.1640   10.9803 C.2     1  UNL1        0.1198
     22 C          65.2233   92.3316   12.0641 C.2     1  UNL1        0.0238
     23 C          63.9825   91.4895   12.0985 C.3     1  UNL1        0.0703
@<TRIPOS>BOND
     1    10     9    1
     2    10    11    1
     3    10     1    1
     4     1     2    2
     5     1     3   am
     6     3     4    1
     7     4     5    1
     8     5     6    1
     9     6    13    1
    10    13    15    1
    11    15    16    2
    12    16    17    1
    13    17    18    2
    14    18    19    1
    15    19    20    2
    16    20    21    1
    17    21    22    2
    18    22    23    1
    19     6     7    1
    20     7     8    1
    21     8     3    1
    22    23    15    1
    23    22    18    1
    24    11    12    1
    25    13    14    1
@<TRIPOS>MOLECULE
*****
 23 25 0 0 0
SMALL
GASTEIGER

@<TRIPOS>ATOM
      1 C          60.5774   87.0583    8.5024 C.2     1  UNL1        0.2525
      2 O          61.3448   85.8634    8.0193 O.2     1  UNL1       -0.2723
      3 N          61.0512   87.8174    9.7061 N.am    1  UNL1       -0.2775
      4 C          60.2837   89.0123   10.1892 C.3     1  UNL1        0.0952
      5 C          60.7575   89.7715   11.3930 C.3     1  UNL1        0.0410
      6 C          61.9988   89.3359   12.1138 C.3     1  UNL1        0.0722
      7 C          62.7662   88.1411   11.6307 C.3     1  UNL1        0.0410
      8 C          62.2924   87.3818   10.4268 C.3     1  UNL1        0.0952
      9 C          59.3015   88.8204    7.0821 C.3     1  UNL1        0.0417
     10 C          59.3361   87.4939    7.7816 C.3     1  UNL1        0.1869
     11 O          58.1294   86.6031    7.7604 O.3     1  UNL1       -0.3758
     12 H          57.4202   87.0314    7.2559 H       1  UNL1        0.2110
     13 N          62.4726   90.0951   13.3175 N.pl3   1  UNL1       -0.3369
     14 H          61.9488   90.0733   14.1509 H       1  UNL1        0.1465
     15 C          63.7446   90.8875   13.2516 C.2     1  UNL1        0.0262
     16 C          64.1169   91.6045   11.9879 C.2     1  UNL1        0.0118
     17 C          65.3889   92.3969   11.9220 C.2     1  UNL1        0.0216
     18 C          66.2884   92.4722   13.1199 C.2     1  UNL1        0.1008
     19 N          67.5959   93.1702   13.3510 N.2     1  UNL1       -0.1482
     20 N          68.0315   92.8845   14.7576 N.2     1  UNL1       -0.1467
     21 C          66.9934   92.0100   15.3959 C.2     1  UNL1        0.1198
     22 C          65.9161   91.7551   14.3837 C.2     1  UNL1        0.0238
     23 C          64.6441   90.9628   14.4496 C.3     1  UNL1        0.0703
@<TRIPOS>BOND
     1    10     9    1
     2    10    11    1
     3    10     1    1
     4     1     2    2
     5     1     3   am
     6     3     4    1
     7     4     5    1
     8     5     6    1
     9     6    13    1
    10    13    15    1
    11    15    16    2
    12    16    17    1
    13    17    18    2
    14    18    19    1
    15    19    20    2
    16    20    21    1
    17    21    22    2
    18    22    23    1
    19     6     7    1
    20     7     8    1
    21     8     3    1
    22    23    15    1
    23    22    18    1
    24    11    12    1
    25    13    14    1
@<TRIPOS>MOLECULE
*****
 23 25 0 0 0
SMALL
GASTEIGER

@<TRIPOS>ATOM
      1 C          65.5554   92.7114   12.4958 C.2     1  UNL1        0.2525
      2 O          65.7768   93.7871   11.4742 O.2     1  UNL1       -0.2723
      3 N          64.5955   91.5942   12.2126 N.am    1  UNL1       -0.2775
      4 C          64.3741   90.5185   13.2344 C.3     1  UNL1        0.0952
      5 C          63.4142   89.4012   12.9512 C.3     1  UNL1        0.0410
      6 C          62.6755   89.3596   11.6463 C.3     1  UNL1        0.0722
      7 C          62.8969   90.4353   10.6246 C.3     1  UNL1        0.0410
      8 C          63.8569   91.5526   10.9078 C.3     1  UNL1        0.0952
      9 C          67.6210   92.0665   13.9336 C.3     1  UNL1        0.0417
     10 C          66.2940   92.7530   13.8007 C.3     1  UNL1        0.1869
     11 O          65.7056   93.4810   14.9728 O.3     1  UNL1       -0.3758
     12 H          66.3059   93.4109   15.7315 H       1  UNL1        0.2110
     13 N          61.7156   88.2424   11.3631 N.pl3   1  UNL1       -0.3369
     14 H          60.7461   88.3940   11.4434 H       1  UNL1        0.1465
     15 C          62.2327   86.8939   10.9576 C.2     1  UNL1        0.0262
     16 C          62.4018   86.5614    9.5048 C.2     1  UNL1        0.0118
     17 C          62.9190   85.2130    9.0992 C.2     1  UNL1        0.0216
     18 C          63.2670   84.1972   10.1466 C.2     1  UNL1        0.1008
     19 N          63.7943   82.7962   10.0501 N.2     1  UNL1       -0.1482
     20 N          63.9511   82.2630   11.4433 N.2     1  UNL1       -0.1467
     21 C          63.5207   83.3344   12.4009 C.2     1  UNL1        0.1198
     22 C          63.0979   84.5298   11.5995 C.2     1  UNL1        0.0238
     23 C          62.5807   85.8781   12.0050 C.3     1  UNL1        0.0703
@<TRIPOS>BOND
     1    10     9    1
     2    10    11    1
     3    10     1    1
     4     1     2    2
     5     1     3   am
     6     3     4    1
     7     4     5    1
     8     5     6    1
     9     6    13    1
    10    13    15    1
    11    15    16    2
    12    16    17    1
    13    17    18    2
    14    18    19    1
    15    19    20    2
    16    20    21    1
    17    21    22    2
    18    22    23    1
    19     6     7    1
    20     7     8    1
    21     8     3    1
    22    23    15    1
    23    22    18    1
    24    11    12    1
    25    13    14    1
@<TRIPOS>MOLECULE
*****
 23 25 0 0 0
SMALL
GASTEIGER

@<TRIPOS>ATOM
      1 C          66.7023   92.6852   12.5076 C.2     1  UNL1        0.2525
      2 O          67.1815   93.4635   11.3182 O.2     1  UNL1       -0.2723
      3 N          65.4138   91.9208   12.4341 N.am    1  UNL1       -0.2775
      4 C          64.9347   91.1425   13.6236 C.3     1  UNL1        0.0952
      5 C          63.6462   90.3781   13.5502 C.3     1  UNL1        0.0410
      6 C          62.8368   90.3919   12.2874 C.3     1  UNL1        0.0722
      7 C          63.3159   91.1702   11.0980 C.3     1  UNL1        0.0410
      8 C          64.6045   91.9347   11.1714 C.3     1  UNL1        0.0952
      9 C          67.0602   93.4667   14.9593 C.3     1  UNL1        0.0417
     10 C          67.5117   92.6714   13.7704 C.3     1  UNL1        0.1869
     11 O          68.7725   91.8622   13.8443 O.3     1  UNL1       -0.3758
     12 H          69.1703   91.9628   14.7232 H       1  UNL1        0.2110
     13 N          61.5483   89.6275   12.2139 N.pl3   1  UNL1       -0.3369
     14 H          60.8387   89.7940   12.8758 H       1  UNL1        0.1465
     15 C          61.3410   88.6093   11.1320 C.2     1  UNL1        0.0262
     16 C          62.2058   87.3850   11.0785 C.2     1  UNL1        0.0118
     17 C          61.9985   86.3668    9.9966 C.2     1  UNL1        0.0216
     18 C          60.9262   86.5731    8.9682 C.2     1  UNL1        0.1008
     19 N          60.4908   85.7490    7.7930 N.2     1  UNL1       -0.1482
     20 N          59.3568   86.4640    7.1201 N.2     1  UNL1       -0.1467
     21 C          59.0913   87.7300    7.8795 C.2     1  UNL1        0.1198
     22 C          60.0613   87.7975    9.0217 C.2     1  UNL1        0.0238
     23 C          60.2687   88.8156   10.1036 C.3     1  UNL1        0.0703
@<TRIPOS>BOND
     1    10     9    1
     2    10    11    1
     3    10     1    1
     4     1     2    2
     5     1     3   am
     6     3     4    1
     7     4     5    1
     8     5     6    1
     9     6    13    1
    10    13    15    1
    11    15    16    2
    12    16    17    1
    13    17    18    2
    14    18    19    1
    15    19    20    2
    16    20    21    1
    17    21    22    2
    18    22    23    1
    19     6     7    1
    20     7     8    1
    21     8     3    1
    22    23    15    1
    23    22    18    1
    24    11    12    1
    25    13    14    1
@<TRIPOS>MOLECULE
*****
 23 25 0 0 0
SMALL
GASTEIGER

@<TRIPOS>ATOM
      1 C          63.8316   83.0287   13.8224 C.2     1  UNL1        0.2525
      2 O          63.8087   81.9596   14.8743 O.2     1  UNL1       -0.2723
      3 N          63.8233   84.4744   14.2222 N.am    1  UNL1       -0.2775
      4 C          63.8462   85.5435   13.1702 C.3     1  UNL1        0.0952
      5 C          63.8380   86.9892   13.5700 C.3     1  UNL1        0.0410
      6 C          63.8068   87.3659   15.0216 C.3     1  UNL1        0.0722
      7 C          63.7839   86.2968   16.0735 C.3     1  UNL1        0.0410
      8 C          63.7922   84.8510   15.6737 C.3     1  UNL1        0.0952
      9 C          62.6320   82.1039   11.7116 C.3     1  UNL1        0.0417
     10 C          63.8628   82.6521   12.3708 C.3     1  UNL1        0.1869
     11 O          65.1248   82.8238   11.5784 O.3     1  UNL1       -0.3758
     12 H          64.9745   82.5352   10.6645 H       1  UNL1        0.2110
     13 N          63.7985   88.8116   15.4214 N.pl3   1  UNL1       -0.3369
     14 H          63.5472   89.0674   16.3383 H       1  UNL1        0.1465
     15 C          64.1732   89.8677   14.4241 C.2     1  UNL1        0.0262
     16 C          63.3217   90.0876   13.2090 C.2     1  UNL1        0.0118
     17 C          63.6964   91.1437   12.2117 C.2     1  UNL1        0.0216
     18 C          64.9226   91.9797   12.4297 C.2     1  UNL1        0.1008
     19 N          65.5385   93.0865   11.6262 N.2     1  UNL1       -0.1482
     20 N          66.7706   93.5506   12.3448 N.2     1  UNL1       -0.1467
     21 C          66.9163   92.7306   13.5924 C.2     1  UNL1        0.1198
     22 C          65.7741   91.7597   13.6448 C.2     1  UNL1        0.0238
     23 C          65.3994   90.7037   14.6420 C.3     1  UNL1        0.0703
@<TRIPOS>BOND
     1    10     9    1
     2    10    11    1
     3    10     1    1
     4     1     2    2
     5     1     3   am
     6     3     4    1
     7     4     5    1
     8     5     6    1
     9     6    13    1
    10    13    15    1
    11    15    16    2
    12    16    17    1
    13    17    18    2
    14    18    19    1
    15    19    20    2
    16    20    21    1
    17    21    22    2
    18    22    23    1
    19     6     7    1
    20     7     8    1
    21     8     3    1
    22    23    15    1
    23    22    18    1
    24    11    12    1
    25    13    14    1
@<TRIPOS>MOLECULE
*****
 23 25 0 0 0
SMALL
GASTEIGER

@<TRIPOS>ATOM
      1 C          60.4182   86.2487    7.7986 C.2     1  UNL1        0.2525
      2 O          59.0409   86.2610    7.2047 O.2     1  UNL1       -0.2723
      3 N          60.7791   87.2277    8.8762 N.am    1  UNL1       -0.2775
      4 C          62.1565   87.2154    9.4701 C.3     1  UNL1        0.0952
      5 C          62.5173   88.1943   10.5478 C.3     1  UNL1        0.0410
      6 C          61.5009   89.1857   11.0316 C.3     1  UNL1        0.0722
      7 C          60.1235   89.1980   10.4377 C.3     1  UNL1        0.0410
      8 C          59.7626   88.2190    9.3600 C.3     1  UNL1        0.0952
      9 C          62.7438   85.1145    8.0330 C.3     1  UNL1        0.0417
     10 C          61.4348   85.2574    7.3148 C.3     1  UNL1        0.1869
     11 O          61.1422   84.4091    6.1128 O.3     1  UNL1       -0.3758
     12 H          61.8978   83.8270    5.9363 H       1  UNL1        0.2110
     13 N          61.8617   90.1647   12.1092 N.pl3   1  UNL1       -0.3369
     14 H          61.2441   90.3202   12.8600 H       1  UNL1        0.1465
     15 C          63.1636   90.9068   12.0430 C.2     1  UNL1        0.0262
     16 C          63.5892   91.5618   10.7626 C.2     1  UNL1        0.0118
     17 C          64.8912   92.3040   10.6963 C.2     1  UNL1        0.0216
     18 C          65.7674   92.3910   11.9106 C.2     1  UNL1        0.1008
     19 N          67.0950   93.0486   12.1453 N.2     1  UNL1       -0.1482
     20 N          67.4898   92.8000   13.5709 N.2     1  UNL1       -0.1467
     21 C          66.4063   91.9887   14.2173 C.2     1  UNL1        0.1198
     22 C          65.3418   91.7359   13.1912 C.2     1  UNL1        0.0238
     23 C          64.0399   90.9938   13.2573 C.3     1  UNL1        0.0703
@<TRIPOS>BOND
     1    10     9    1
     2    10    11    1
     3    10     1    1
     4     1     2    2
     5     1     3   am
     6     3     4    1
     7     4     5    1
     8     5     6    1
     9     6    13    1
    10    13    15    1
    11    15    16    2
    12    16    17    1
    13    17    18    2
    14    18    19    1
    15    19    20    2
    16    20    21    1
    17    21    22    2
    18    22    23    1
    19     6     7    1
    20     7     8    1
    21     8     3    1
    22    23    15    1
    23    22    18    1
    24    11    12    1
    25    13    14    1
@<TRIPOS>MOLECULE
*****
 23 25 0 0 0
SMALL
GASTEIGER

@<TRIPOS>ATOM
      1 C          63.5516   82.4891   11.2251 C.2     1  UNL1        0.2525
      2 O          64.1569   81.7255   10.0847 O.2     1  UNL1       -0.2723
      3 N          63.0868   83.9004   11.0197 N.am    1  UNL1       -0.2775
      4 C          62.4815   84.6641   12.1602 C.3     1  UNL1        0.0952
      5 C          62.0166   86.0753   11.9549 C.3     1  UNL1        0.0410
      6 C          62.1570   86.7230   10.6092 C.3     1  UNL1        0.0722
      7 C          62.7623   85.9594    9.4688 C.3     1  UNL1        0.0410
      8 C          63.2272   84.5480    9.6741 C.3     1  UNL1        0.0952
      9 C          62.5229   80.6445   12.7380 C.3     1  UNL1        0.0417
     10 C          63.4112   81.8415   12.5708 C.3     1  UNL1        0.1869
     11 O          64.1591   82.3909   13.7492 O.3     1  UNL1       -0.3758
     12 H          63.9582   81.8600   14.5358 H       1  UNL1        0.2110
     13 N          61.6921   88.1343   10.4038 N.pl3   1  UNL1       -0.3369
     14 H          60.8468   88.3103    9.9309 H       1  UNL1        0.1465
     15 C          62.5153   89.2775   10.9192 C.2     1  UNL1        0.0262
     16 C          62.8313   90.4381   10.0231 C.2     1  UNL1        0.0118
     17 C          63.6545   91.5813   10.5384 C.2     1  UNL1        0.0216
     18 C          64.1616   91.5638   11.9500 C.2     1  UNL1        0.1008
     19 N          64.9897   92.5406   12.7311 N.2     1  UNL1       -0.1482
     20 N          65.1854   91.9837   14.1101 N.2     1  UNL1       -0.1467
     21 C          64.4783   90.6627   14.1812 C.2     1  UNL1        0.1198
     22 C          63.8455   90.4032   12.8462 C.2     1  UNL1        0.0238
     23 C          63.0224   89.2601   12.3308 C.3     1  UNL1        0.0703
@<TRIPOS>BOND
     1    10     9    1
     2    10    11    1
     3    10     1    1
     4     1     2    2
     5     1     3   am
     6     3     4    1
     7     4     5    1
     8     5     6    1
     9     6    13    1
    10    13    15    1
    11    15    16    2
    12    16    17    1
    13    17    18    2
    14    18    19    1
    15    19    20    2
    16    20    21    1
    17    21    22    2
    18    22    23    1
    19     6     7    1
    20     7     8    1
    21     8     3    1
    22    23    15    1
    23    22    18    1
    24    11    12    1
    25    13    14    1
