@<TRIPOS>MOLECULE
*****
 37 43 0 0 0
SMALL
GASTEIGER

@<TRIPOS>ATOM
      1 N          63.5289   89.8423   17.4499 N.pl3   1  UNL1       -0.3414
      2 C          63.1683   88.4256   17.1137 C.ar    1  UNL1        0.1432
      3 N          62.4363   87.5805   18.1137 N.ar    1  UNL1       -0.2265
      4 C          62.0757   86.1638   17.7775 C.ar    1  UNL1        0.1193
      5 C          62.4472   85.5923   16.4413 C.ar    1  UNL1        0.1020
      6 N          63.1791   86.4374   15.4413 N.ar    1  UNL1       -0.2885
      7 C          63.5397   87.8541   15.7775 C.ar    1  UNL1        0.1141
      8 C          64.2570   88.4421   14.5986 C.ar    1  UNL1        0.1014
      9 N          64.3397   87.3889   13.5338 N.ar    1  UNL1       -0.2305
     10 C          63.6735   86.1499   14.0546 C.ar    1  UNL1        0.1239
     11 H          63.2851   90.2174   18.3269 H       1  UNL1        0.1438
     12 H          64.0093   90.3969   16.7936 H       1  UNL1        0.1438
     13 C          64.7967   89.8383   14.5016 C.ar    1  UNL1        0.0207
     14 C          65.2404   90.5586   15.7403 C.ar    1  UNL1        0.0016
     15 C          65.7801   91.9548   15.6432 C.ar    1  UNL1        0.0015
     16 C          65.8762   92.6305   14.3075 C.ar    1  UNL1        0.0177
     17 C          66.4160   94.0267   14.2105 C.ar    1  UNL1        0.0030
     18 C          66.5122   94.7025   12.8748 C.ar    1  UNL1        0.0191
     19 C          66.0685   93.9821   11.6361 C.ar    1  UNL1        0.0812
     20 N          65.5288   92.5860   11.7332 N.ar    1  UNL1       -0.2454
     21 C          65.4326   91.9102   13.0689 C.ar    1  UNL1        0.0813
     22 C          64.8929   90.5141   13.1659 C.ar    1  UNL1        0.0206
     23 C          66.1646   94.6579   10.3004 C.ar    1  UNL1        0.0176
     24 C          65.3888   95.9147   10.0382 C.ar    1  UNL1        0.0015
     25 C          65.4849   96.5904    8.7025 C.ar    1  UNL1        0.0000
     26 C          66.3569   96.0095    7.6290 C.ar    1  UNL1        0.0000
     27 C          67.1327   94.7528    7.8913 C.ar    1  UNL1        0.0000
     28 C          67.0366   94.0770    9.2270 C.ar    1  UNL1        0.0015
     29 C          63.5275   84.8514   13.3180 C.3     1  UNL1        0.0599
     30 C          64.0730   83.4652   13.4936 C.3     1  UNL1        0.0235
     31 C          63.3209   83.0150   12.2763 C.3     1  UNL1        0.0584
     32 C          62.7753   84.4012   12.1008 C.3     1  UNL1        0.0235
     33 N          63.1748   81.7165   11.5398 N.3     1  UNL1       -0.2739
     34 C          62.7585   80.4055   12.1380 C.3     1  UNL1        0.0721
     35 C          62.7458   79.3798   11.0436 C.3     1  UNL1        0.0188
     36 C          63.1543   80.0569    9.7690 C.3     1  UNL1        0.0188
     37 C          63.4194   81.5010   10.0756 C.3     1  UNL1        0.0721
@<TRIPOS>BOND
     1     1     2    1
     2     2     3   ar
     3     3     4   ar
     4     4     5   ar
     5     5     6   ar
     6     6     7   ar
     7     7     8   ar
     8     8    13    1
     9    13    14   ar
    10    14    15   ar
    11    15    16   ar
    12    16    17   ar
    13    17    18   ar
    14    18    19   ar
    15    19    23    1
    16    23    24   ar
    17    24    25   ar
    18    25    26   ar
    19    26    27   ar
    20    27    28   ar
    21    19    20   ar
    22    20    21   ar
    23    21    22   ar
    24     8     9   ar
    25     9    10   ar
    26    29    10    1
    27    29    30    1
    28    30    31    1
    29    31    33    1
    30    33    34    1
    31    34    35    1
    32    35    36    1
    33    36    37    1
    34    31    32    1
    35     7     2   ar
    36    22    13   ar
    37    32    29    1
    38    10     6   ar
    39    37    33    1
    40    21    16   ar
    41    28    23   ar
    42     1    11    1
    43     1    12    1
@<TRIPOS>MOLECULE
*****
 37 43 0 0 0
SMALL
GASTEIGER

@<TRIPOS>ATOM
      1 N          63.1509   88.8646   17.5782 N.pl3   1  UNL1       -0.3414
      2 C          63.6185   90.1011   16.8693 C.ar    1  UNL1        0.1432
      3 N          63.6479   91.4147   17.5929 N.ar    1  UNL1       -0.2265
      4 C          64.1155   92.6511   16.8841 C.ar    1  UNL1        0.1193
      5 C          64.5537   92.5739   15.4515 C.ar    1  UNL1        0.1020
      6 N          64.5243   91.2603   14.7280 N.ar    1  UNL1       -0.2885
      7 C          64.0567   90.0239   15.4369 C.ar    1  UNL1        0.1141
      8 C          64.1367   88.8781   14.4720 C.ar    1  UNL1        0.1014
      9 N          64.6537   89.4064   13.1669 N.ar    1  UNL1       -0.2305
     10 C          64.8933   90.8787   13.3250 C.ar    1  UNL1        0.1239
     11 H          62.8632   88.9153   18.5184 H       1  UNL1        0.1438
     12 H          63.1316   88.0025   17.1033 H       1  UNL1        0.1438
     13 C          63.7648   87.4540   14.7616 C.ar    1  UNL1        0.0207
     14 C          63.3930   87.0446   16.1559 C.ar    1  UNL1        0.0016
     15 C          63.0212   85.6206   16.4454 C.ar    1  UNL1        0.0015
     16 C          63.0212   84.6060   15.3407 C.ar    1  UNL1        0.0177
     17 C          62.6494   83.1819   15.6303 C.ar    1  UNL1        0.0030
     18 C          62.6494   82.1673   14.5255 C.ar    1  UNL1        0.0191
     19 C          63.0212   82.5767   13.1311 C.ar    1  UNL1        0.0812
     20 N          63.3930   84.0007   12.8416 N.ar    1  UNL1       -0.2454
     21 C          63.3930   85.0154   13.9464 C.ar    1  UNL1        0.0813
     22 C          63.7648   86.4394   13.6569 C.ar    1  UNL1        0.0206
     23 C          63.0212   81.5621   12.0264 C.ar    1  UNL1        0.0176
     24 C          63.4539   81.9570   10.6454 C.ar    1  UNL1        0.0015
     25 C          63.4539   80.9423    9.5406 C.ar    1  UNL1        0.0000
     26 C          63.0213   79.5328    9.8168 C.ar    1  UNL1        0.0000
     27 C          62.5887   79.1380   11.1977 C.ar    1  UNL1        0.0000
     28 C          62.5886   80.1527   12.3025 C.ar    1  UNL1        0.0015
     29 C          65.4110   91.8065   12.2661 C.3     1  UNL1        0.0599
     30 C          64.9619   92.2022   10.8907 C.3     1  UNL1        0.0235
     31 C          66.1432   93.1186   10.7687 C.3     1  UNL1        0.0584
     32 C          66.5923   92.7228   12.1440 C.3     1  UNL1        0.0235
     33 N          66.6608   94.0464    9.7098 N.3     1  UNL1       -0.2739
     34 C          66.2770   95.4858    9.5343 C.3     1  UNL1        0.0721
     35 C          67.0322   96.0266    8.3566 C.3     1  UNL1        0.0188
     36 C          67.8828   94.9215    7.8041 C.3     1  UNL1        0.0188
     37 C          67.6533   93.6977    8.6405 C.3     1  UNL1        0.0721
@<TRIPOS>BOND
     1     1     2    1
     2     2     3   ar
     3     3     4   ar
     4     4     5   ar
     5     5     6   ar
     6     6     7   ar
     7     7     8   ar
     8     8    13    1
     9    13    14   ar
    10    14    15   ar
    11    15    16   ar
    12    16    17   ar
    13    17    18   ar
    14    18    19   ar
    15    19    23    1
    16    23    24   ar
    17    24    25   ar
    18    25    26   ar
    19    26    27   ar
    20    27    28   ar
    21    19    20   ar
    22    20    21   ar
    23    21    22   ar
    24     8     9   ar
    25     9    10   ar
    26    29    10    1
    27    29    30    1
    28    30    31    1
    29    31    33    1
    30    33    34    1
    31    34    35    1
    32    35    36    1
    33    36    37    1
    34    31    32    1
    35     7     2   ar
    36    22    13   ar
    37    32    29    1
    38    10     6   ar
    39    37    33    1
    40    21    16   ar
    41    28    23   ar
    42     1    11    1
    43     1    12    1
@<TRIPOS>MOLECULE
*****
 37 43 0 0 0
SMALL
GASTEIGER

@<TRIPOS>ATOM
      1 N          61.7066   91.4580    9.6096 N.pl3   1  UNL1       -0.3414
      2 C          62.2362   90.4013   10.5332 C.ar    1  UNL1        0.1432
      3 N          63.1296   90.7832   11.6760 N.ar    1  UNL1       -0.2265
      4 C          63.6592   89.7266   12.5996 C.ar    1  UNL1        0.1193
      5 C          63.2953   88.2879   12.3803 C.ar    1  UNL1        0.1020
      6 N          62.4019   87.9061   11.2375 N.ar    1  UNL1       -0.2885
      7 C          61.8724   88.9627   10.3139 C.ar    1  UNL1        0.1141
      8 C          61.0184   88.2896    9.2806 C.ar    1  UNL1        0.1014
      9 N          61.0202   86.8170    9.5656 N.ar    1  UNL1       -0.2305
     10 C          61.8752   86.5799   10.7750 C.ar    1  UNL1        0.1239
     11 H          61.9454   92.4022    9.7535 H       1  UNL1        0.1438
     12 H          61.1203   91.2073    8.8596 H       1  UNL1        0.1438
     13 C          60.2904   88.9699    8.1592 C.ar    1  UNL1        0.0207
     14 C          58.8028   88.8248    8.0337 C.ar    1  UNL1        0.0016
     15 C          58.0749   89.5050    6.9123 C.ar    1  UNL1        0.0015
     16 C          58.8347   90.3303    5.9166 C.ar    1  UNL1        0.0177
     17 C          58.1067   91.0106    4.7952 C.ar    1  UNL1        0.0030
     18 C          58.8665   91.8359    3.7994 C.ar    1  UNL1        0.0191
     19 C          60.3543   91.9810    3.9250 C.ar    1  UNL1        0.0812
     20 N          61.0821   91.3008    5.0463 N.ar    1  UNL1       -0.2454
     21 C          60.3223   90.4754    6.0421 C.ar    1  UNL1        0.0813
     22 C          61.0502   89.7952    7.1635 C.ar    1  UNL1        0.0206
     23 C          61.1140   92.8063    2.9292 C.ar    1  UNL1        0.0176
     24 C          62.5454   92.4801    2.6213 C.ar    1  UNL1        0.0015
     25 C          63.3052   93.3055    1.6255 C.ar    1  UNL1        0.0000
     26 C          62.6336   94.4569    0.9376 C.ar    1  UNL1        0.0000
     27 C          61.2022   94.7830    1.2456 C.ar    1  UNL1        0.0000
     28 C          60.4425   93.9577    2.2414 C.ar    1  UNL1        0.0015
     29 C          62.1546   85.2501   11.4103 C.3     1  UNL1        0.0599
     30 C          62.3799   83.8574   10.9006 C.3     1  UNL1        0.0235
     31 C          62.5496   83.3695   12.3088 C.3     1  UNL1        0.0584
     32 C          62.3243   84.7621   12.8185 C.3     1  UNL1        0.0235
     33 N          62.8289   82.0397   12.9442 N.3     1  UNL1       -0.2739
     34 C          64.1611   81.5630   13.4424 C.3     1  UNL1        0.0721
     35 C          63.9806   80.1819   13.9990 C.3     1  UNL1        0.0188
     36 C          62.5370   79.8049   13.8447 C.3     1  UNL1        0.0188
     37 C          61.8252   80.9531   13.1928 C.3     1  UNL1        0.0721
@<TRIPOS>BOND
     1     1     2    1
     2     2     3   ar
     3     3     4   ar
     4     4     5   ar
     5     5     6   ar
     6     6     7   ar
     7     7     8   ar
     8     8    13    1
     9    13    14   ar
    10    14    15   ar
    11    15    16   ar
    12    16    17   ar
    13    17    18   ar
    14    18    19   ar
    15    19    23    1
    16    23    24   ar
    17    24    25   ar
    18    25    26   ar
    19    26    27   ar
    20    27    28   ar
    21    19    20   ar
    22    20    21   ar
    23    21    22   ar
    24     8     9   ar
    25     9    10   ar
    26    29    10    1
    27    29    30    1
    28    30    31    1
    29    31    33    1
    30    33    34    1
    31    34    35    1
    32    35    36    1
    33    36    37    1
    34    31    32    1
    35     7     2   ar
    36    22    13   ar
    37    32    29    1
    38    10     6   ar
    39    37    33    1
    40    21    16   ar
    41    28    23   ar
    42     1    11    1
    43     1    12    1
