@<TRIPOS>MOLECULE
*****
 49 55 0 0 0
SMALL
GASTEIGER

@<TRIPOS>ATOM
      1 C          59.9434   89.8230    6.7480 C.ar    1  UNL1        0.0481
      2 C          59.4523   88.4058    6.7576 C.ar    1  UNL1        0.0176
      3 C          59.4753   87.6126    8.0306 C.ar    1  UNL1        0.0382
      4 C          59.9893   88.2368    9.2940 C.ar    1  UNL1        0.1388
      5 C          60.4803   89.6542    9.2844 C.ar    1  UNL1        0.0382
      6 C          60.4574   90.4472    8.0114 C.ar    1  UNL1        0.0176
      7 N          59.8745   92.2023    2.9291 N.pl3   1  UNL1       -0.3041
      8 C          58.6102   92.0022    3.7109 C.3     1  UNL1        0.1122
      9 C          58.6331   91.2091    4.9840 C.3     1  UNL1        0.1122
     10 N          59.9204   90.6161    5.4751 N.pl3   1  UNL1       -0.3041
     11 C          61.1848   90.8162    4.6931 C.3     1  UNL1        0.1122
     12 C          61.1619   91.6093    3.4202 C.3     1  UNL1        0.1122
     13 C          59.8058   94.5816   -0.8899 C.ar    1  UNL1        0.0699
     14 C          59.9355   95.2840    0.4291 C.ar    1  UNL1        0.0190
     15 C          59.9584   94.4909    1.7021 C.ar    1  UNL1        0.0160
     16 C          59.8516   92.9954    1.6560 C.ar    1  UNL1        0.0480
     17 C          59.7220   92.2930    0.3370 C.ar    1  UNL1        0.0160
     18 C          59.6991   93.0861   -0.9359 C.ar    1  UNL1        0.0190
     19 N          59.0591   96.3375   -4.2699 N.ar    1  UNL1       -0.2024
     20 N          60.4364   96.8527   -3.9737 N.ar    1  UNL1       -0.1442
     21 C          60.8838   96.2575   -2.6716 C.ar    1  UNL1        0.2073
     22 N          59.7829   95.3747   -2.1629 N.ar    1  UNL1       -0.2398
     23 C          58.6552   95.4241   -3.1507 C.ar    1  UNL1        0.3522
     24 O          57.3524   94.6892   -3.0390 O.2     1  UNL1       -0.2444
     25 C          58.2310   96.6764   -5.4738 C.3     1  UNL1        0.1099
     26 C          58.8859   96.8359   -6.8138 C.3     1  UNL1        0.0265
     27 C          55.8164   96.1238   -6.2577 C.3     1  UNL1        0.0021
     28 C          56.7480   96.8557   -5.3378 C.3     1  UNL1        0.0245
     29 O          60.0122   87.4438   10.5669 O.3     1  UNL1       -0.4727
     30 C          59.9650   88.1482   11.8904 C.3     1  UNL1        0.2374
     31 C          61.0899   89.0523   12.2994 C.3     1  UNL1        0.1909
     32 C          61.0815   90.5512   12.2426 C.3     1  UNL1        0.1783
     33 O          62.4071   91.0416   12.7450 O.3     1  UNL1       -0.3266
     34 C          63.2347   89.8456   13.1124 C.3     1  UNL1        0.2315
     35 O          62.4206   88.6163   12.8369 O.3     1  UNL1       -0.3254
     36 C          64.2669   90.8698   13.4807 C.ar    1  UNL1        0.0410
     37 C          64.6984   91.0195   14.9095 C.ar    1  UNL1        0.0022
     38 C          65.7306   92.0437   15.2779 C.ar    1  UNL1        0.0113
     39 C          66.3312   92.9181   14.2175 C.ar    1  UNL1        0.0585
     40 CL         67.3634   93.9423   14.5858 Cl      1  UNL1       -0.0822
     41 C          65.8998   92.7685   12.7887 C.ar    1  UNL1        0.0226
     42 C          64.8675   91.7443   12.4203 C.ar    1  UNL1        0.0591
     43 CL         64.4361   91.5946   10.9915 Cl      1  UNL1       -0.0824
     44 C          64.2781   88.8639   13.5567 C.3     1  UNL1        0.1897
     45 N          63.9801   87.9059   14.6719 N.ar    1  UNL1       -0.2246
     46 C          64.3659   86.4572   14.7164 C.ar    1  UNL1        0.1974
     47 N          63.8682   85.8844   16.0103 N.ar    1  UNL1       -0.2007
     48 C          63.1746   86.9793   16.7655 C.ar    1  UNL1        0.2210
     49 N          63.2438   88.2287   15.9383 N.ar    1  UNL1       -0.1450
@<TRIPOS>BOND
     1    27    28    1
     2    28    25    1
     3    25    26    1
     4    25    19    1
     5    19    20   ar
     6    20    21   ar
     7    21    22   ar
     8    22    13    1
     9    13    14   ar
    10    14    15   ar
    11    15    16   ar
    12    16     7    1
    13     7     8    1
    14     8     9    1
    15     9    10    1
    16    10     1    1
    17     1     2   ar
    18     2     3   ar
    19     3     4   ar
    20     4    29    1
    21    29    30    1
    22    31    30    1
    23    31    32    1
    24    32    33    1
    25    33    34    1
    26    34    44    1
    27    44    45    1
    28    45    46   ar
    29    46    47   ar
    30    47    48   ar
    31    48    49   ar
    32    34    36    1
    33    36    37   ar
    34    37    38   ar
    35    38    39   ar
    36    39    40    1
    37    39    41   ar
    38    41    42   ar
    39    42    43    1
    40    34    35    1
    41     4     5   ar
    42     5     6   ar
    43    10    11    1
    44    11    12    1
    45    16    17   ar
    46    17    18   ar
    47    22    23   ar
    48    23    24    2
    49    23    19   ar
    50    18    13   ar
    51    12     7    1
    52     6     1   ar
    53    35    31    1
    54    49    45   ar
    55    42    36   ar
@<TRIPOS>MOLECULE
*****
 49 55 0 0 0
SMALL
GASTEIGER

@<TRIPOS>ATOM
      1 C          60.1539   90.1667    6.8922 C.ar    1  UNL1        0.0481
      2 C          59.3424   88.9296    7.1392 C.ar    1  UNL1        0.0176
      3 C          59.4291   88.2274    8.4619 C.ar    1  UNL1        0.0382
      4 C          60.3272   88.7625    9.5376 C.ar    1  UNL1        0.1388
      5 C          61.1387   89.9997    9.2905 C.ar    1  UNL1        0.0382
      6 C          61.0520   90.7018    7.9679 C.ar    1  UNL1        0.0176
      7 N          59.8938   92.2730    2.9241 N.pl3   1  UNL1       -0.3041
      8 C          58.6656   92.1131    3.7702 C.3     1  UNL1        0.1122
      9 C          58.7523   91.4110    5.0929 C.3     1  UNL1        0.1122
     10 N          60.0672   90.8688    5.5695 N.pl3   1  UNL1       -0.3041
     11 C          61.2954   91.0288    4.7233 C.3     1  UNL1        0.1122
     12 C          61.2087   91.7308    3.4006 C.3     1  UNL1        0.1122
     13 C          59.6338   94.3791   -1.0441 C.ar    1  UNL1        0.0699
     14 C          59.6299   92.8802   -0.9890 C.ar    1  UNL1        0.0190
     15 C          59.7166   92.1782    0.3337 C.ar    1  UNL1        0.0160
     16 C          59.8071   92.9751    1.6013 C.ar    1  UNL1        0.0480
     17 C          59.8110   94.4740    1.5462 C.ar    1  UNL1        0.0160
     18 C          59.7244   95.1761    0.2235 C.ar    1  UNL1        0.0190
     19 N          58.7260   95.8813   -4.5060 N.ar    1  UNL1       -0.2024
     20 N          60.1018   96.4420   -4.2986 N.ar    1  UNL1       -0.1442
     21 C          60.6092   95.9475   -2.9765 C.ar    1  UNL1        0.2073
     22 N          59.5472   95.0813   -2.3669 N.ar    1  UNL1       -0.2398
     23 C          58.3833   95.0404   -3.3122 C.ar    1  UNL1        0.3522
     24 O          57.1016   94.2902   -3.1008 O.2     1  UNL1       -0.2444
     25 C          57.8473   96.1198   -5.6981 C.3     1  UNL1        0.1099
     26 C          56.4945   96.7429   -5.5200 C.3     1  UNL1        0.0265
     27 C          59.0606   94.4461   -7.2718 C.3     1  UNL1        0.0021
     28 C          58.3213   95.7352   -7.0683 C.3     1  UNL1        0.0245
     29 O          60.4139   88.0604   10.8603 O.3     1  UNL1       -0.4727
     30 C          60.3747   88.8522   12.1336 C.3     1  UNL1        0.2374
     31 C          61.6062   89.5610   12.6144 C.3     1  UNL1        0.1909
     32 C          62.3977   90.5750   11.8428 C.3     1  UNL1        0.1783
     33 O          63.5431   91.0209   12.7026 O.3     1  UNL1       -0.3266
     34 C          63.4595   90.2824   14.0056 C.3     1  UNL1        0.2315
     35 O          62.2624   89.3801   13.9510 O.3     1  UNL1       -0.3254
     36 C          64.6930   91.0644   14.3475 C.ar    1  UNL1        0.0410
     37 C          65.8002   91.1951   13.3440 C.ar    1  UNL1        0.0022
     38 C          67.0338   91.9772   13.6858 C.ar    1  UNL1        0.0113
     39 C          67.1600   92.6285   15.0311 C.ar    1  UNL1        0.0585
     40 CL         68.3935   93.4106   15.3729 Cl      1  UNL1       -0.0822
     41 C          66.0528   92.4979   16.0346 C.ar    1  UNL1        0.0226
     42 C          64.8192   91.7158   15.6928 C.ar    1  UNL1        0.0591
     43 CL         63.7120   91.5851   16.6962 Cl      1  UNL1       -0.0824
     44 C          63.6337   89.7074   15.3800 C.3     1  UNL1        0.1897
     45 N          63.7417   88.2226   15.5637 N.ar    1  UNL1       -0.2246
     46 C          64.5280   87.2821   14.6995 C.ar    1  UNL1        0.1974
     47 N          64.3546   85.8959   15.2456 N.ar    1  UNL1       -0.2007
     48 C          63.4610   85.9797   16.4475 C.ar    1  UNL1        0.2210
     49 N          63.0823   87.4177   16.6441 N.ar    1  UNL1       -0.1450
@<TRIPOS>BOND
     1    27    28    1
     2    28    25    1
     3    25    26    1
     4    25    19    1
     5    19    20   ar
     6    20    21   ar
     7    21    22   ar
     8    22    13    1
     9    13    14   ar
    10    14    15   ar
    11    15    16   ar
    12    16     7    1
    13     7     8    1
    14     8     9    1
    15     9    10    1
    16    10     1    1
    17     1     2   ar
    18     2     3   ar
    19     3     4   ar
    20     4    29    1
    21    29    30    1
    22    31    30    1
    23    31    32    1
    24    32    33    1
    25    33    34    1
    26    34    44    1
    27    44    45    1
    28    45    46   ar
    29    46    47   ar
    30    47    48   ar
    31    48    49   ar
    32    34    36    1
    33    36    37   ar
    34    37    38   ar
    35    38    39   ar
    36    39    40    1
    37    39    41   ar
    38    41    42   ar
    39    42    43    1
    40    34    35    1
    41     4     5   ar
    42     5     6   ar
    43    10    11    1
    44    11    12    1
    45    16    17   ar
    46    17    18   ar
    47    22    23   ar
    48    23    24    2
    49    23    19   ar
    50    18    13   ar
    51    12     7    1
    52     6     1   ar
    53    35    31    1
    54    49    45   ar
    55    42    36   ar
@<TRIPOS>MOLECULE
*****
 49 55 0 0 0
SMALL
GASTEIGER

@<TRIPOS>ATOM
      1 C          60.1915   89.8762    7.2917 C.ar    1  UNL1        0.0481
      2 C          60.9860   90.4670    8.4185 C.ar    1  UNL1        0.0176
      3 C          61.1144   89.7245    9.7156 C.ar    1  UNL1        0.0382
      4 C          60.4483   88.3914    9.8858 C.ar    1  UNL1        0.1388
      5 C          59.6537   87.8007    8.7589 C.ar    1  UNL1        0.0382
      6 C          59.5254   88.5431    7.4619 C.ar    1  UNL1        0.0176
      7 N          59.8064   92.1035    3.4006 N.pl3   1  UNL1       -0.3041
      8 C          58.6019   91.9011    4.2712 C.3     1  UNL1        0.1122
      9 C          58.7302   91.1586    5.5683 C.3     1  UNL1        0.1122
     10 N          60.0631   90.6187    5.9947 N.pl3   1  UNL1       -0.3041
     11 C          61.2677   90.8211    5.1240 C.3     1  UNL1        0.1122
     12 C          61.1393   91.5635    3.8270 C.3     1  UNL1        0.1122
     13 C          59.4215   94.3309   -0.4905 C.ar    1  UNL1        0.0699
     14 C          59.6651   95.0838    0.7837 C.ar    1  UNL1        0.0190
     15 C          59.7934   94.3414    2.0807 C.ar    1  UNL1        0.0160
     16 C          59.6781   92.8460    2.1035 C.ar    1  UNL1        0.0480
     17 C          59.4346   92.0930    0.8293 C.ar    1  UNL1        0.0160
     18 C          59.3063   92.8355   -0.4677 C.ar    1  UNL1        0.0190
     19 N          58.8838   95.5826   -4.1250 N.ar    1  UNL1       -0.2024
     20 N          59.3077   96.8491   -3.4420 N.ar    1  UNL1       -0.1442
     21 C          59.5607   96.5343   -1.9974 C.ar    1  UNL1        0.2073
     22 N          59.2932   95.0733   -1.7876 N.ar    1  UNL1       -0.2398
     23 C          58.8748   94.4852   -3.1025 C.ar    1  UNL1        0.3522
     24 O          58.5114   93.0513   -3.3513 O.2     1  UNL1       -0.2444
     25 C          58.5308   95.4389   -5.5758 C.3     1  UNL1        0.1099
     26 C          57.2202   95.9621   -6.0842 C.3     1  UNL1        0.0265
     27 C          60.9436   94.6778   -6.1667 C.3     1  UNL1        0.0021
     28 C          59.4885   94.7720   -6.5182 C.3     1  UNL1        0.0245
     29 O          60.5766   87.6490   11.1828 O.3     1  UNL1       -0.4727
     30 C          61.9159   87.1388   11.6256 C.3     1  UNL1        0.2374
     31 C          62.8450   88.0354   12.3892 C.3     1  UNL1        0.1909
     32 C          63.8898   87.5923   13.3701 C.3     1  UNL1        0.1783
     33 O          64.5829   88.8154   13.8932 O.3     1  UNL1       -0.3266
     34 C          63.9664   90.0144   13.2356 C.3     1  UNL1        0.2315
     35 O          62.8923   89.5323   12.3061 O.3     1  UNL1       -0.3254
     36 C          64.9548   90.7807   14.0638 C.ar    1  UNL1        0.0410
     37 C          66.3439   91.0143   13.5481 C.ar    1  UNL1        0.0022
     38 C          67.3324   91.7806   14.3763 C.ar    1  UNL1        0.0113
     39 C          66.9318   92.3131   15.7201 C.ar    1  UNL1        0.0585
     40 CL         67.9202   93.0793   16.5483 Cl      1  UNL1       -0.0822
     41 C          65.5427   92.0795   16.2358 C.ar    1  UNL1        0.0226
     42 C          64.5542   91.3132   15.4076 C.ar    1  UNL1        0.0591
     43 CL         63.1651   91.0796   15.9233 Cl      1  UNL1       -0.0824
     44 C          63.5565   91.3736   12.7512 C.3     1  UNL1        0.1897
     45 N          64.5034   92.1922   11.9244 N.ar    1  UNL1       -0.2246
     46 C          64.8173   91.9792   10.4733 C.ar    1  UNL1        0.1974
     47 N          65.8104   93.0228   10.0557 N.ar    1  UNL1       -0.2007
     48 C          66.1103   93.8809   11.2489 C.ar    1  UNL1        0.2210
     49 N          65.3025   93.3676   12.4038 N.ar    1  UNL1       -0.1450
@<TRIPOS>BOND
     1    27    28    1
     2    28    25    1
     3    25    26    1
     4    25    19    1
     5    19    20   ar
     6    20    21   ar
     7    21    22   ar
     8    22    13    1
     9    13    14   ar
    10    14    15   ar
    11    15    16   ar
    12    16     7    1
    13     7     8    1
    14     8     9    1
    15     9    10    1
    16    10     1    1
    17     1     2   ar
    18     2     3   ar
    19     3     4   ar
    20     4    29    1
    21    29    30    1
    22    31    30    1
    23    31    32    1
    24    32    33    1
    25    33    34    1
    26    34    44    1
    27    44    45    1
    28    45    46   ar
    29    46    47   ar
    30    47    48   ar
    31    48    49   ar
    32    34    36    1
    33    36    37   ar
    34    37    38   ar
    35    38    39   ar
    36    39    40    1
    37    39    41   ar
    38    41    42   ar
    39    42    43    1
    40    34    35    1
    41     4     5   ar
    42     5     6   ar
    43    10    11    1
    44    11    12    1
    45    16    17   ar
    46    17    18   ar
    47    22    23   ar
    48    23    24    2
    49    23    19   ar
    50    18    13   ar
    51    12     7    1
    52     6     1   ar
    53    35    31    1
    54    49    45   ar
    55    42    36   ar
@<TRIPOS>MOLECULE
*****
 49 55 0 0 0
SMALL
GASTEIGER

@<TRIPOS>ATOM
      1 C          60.5130   90.4190    6.7716 C.ar    1  UNL1        0.0481
      2 C          59.5766   89.3172    7.1705 C.ar    1  UNL1        0.0176
      3 C          59.6616   88.7213    8.5445 C.ar    1  UNL1        0.0382
      4 C          60.6831   89.2273    9.5195 C.ar    1  UNL1        0.1388
      5 C          61.6195   90.3292    9.1205 C.ar    1  UNL1        0.0382
      6 C          61.5345   90.9250    7.7465 C.ar    1  UNL1        0.0176
      7 N          60.2578   92.2064    2.6497 N.pl3   1  UNL1       -0.3041
      8 C          61.5680   91.6855    3.1614 C.3     1  UNL1        0.1122
      9 C          61.6531   91.0896    4.5354 C.3     1  UNL1        0.1122
     10 N          60.4279   91.0148    5.3976 N.pl3   1  UNL1       -0.3041
     11 C          59.1177   91.5357    4.8858 C.3     1  UNL1        0.1122
     12 C          59.0326   92.1315    3.5119 C.3     1  UNL1        0.1122
     13 C          60.0023   93.9939   -1.4722 C.ar    1  UNL1        0.0699
     14 C          58.8161   94.0493   -0.5558 C.ar    1  UNL1        0.0190
     15 C          58.9013   93.4535    0.8181 C.ar    1  UNL1        0.0160
     16 C          60.1727   92.8022    1.2757 C.ar    1  UNL1        0.0480
     17 C          61.3589   92.7468    0.3593 C.ar    1  UNL1        0.0160
     18 C          61.2737   93.3426   -1.0146 C.ar    1  UNL1        0.0190
     19 N          59.1834   95.0848   -5.1060 N.ar    1  UNL1       -0.2024
     20 N          60.3892   95.9283   -4.8149 N.ar    1  UNL1       -0.1442
     21 C          60.8427   95.6223   -3.4183 C.ar    1  UNL1        0.2073
     22 N          59.9172   94.5897   -2.8462 N.ar    1  UNL1       -0.2398
     23 C          58.8917   94.2576   -3.8893 C.ar    1  UNL1        0.3522
     24 O          57.7713   93.2713   -3.7416 O.2     1  UNL1       -0.2444
     25 C          58.4058   95.0711   -6.3887 C.3     1  UNL1        0.1099
     26 C          57.3309   96.0902   -6.6250 C.3     1  UNL1        0.0265
     27 C          57.8643   92.7981   -7.5244 C.3     1  UNL1        0.0021
     28 C          58.7032   94.0383   -7.4350 C.3     1  UNL1        0.0245
     29 O          60.7682   88.6315   10.8934 O.3     1  UNL1       -0.4727
     30 C          62.0563   88.0298   11.3715 C.3     1  UNL1        0.2374
     31 C          62.1392   86.5580   11.6489 C.3     1  UNL1        0.1909
     32 C          61.4900   85.4712   10.8442 C.3     1  UNL1        0.1783
     33 O          61.8354   84.1561   11.4776 O.3     1  UNL1       -0.3266
     34 C          62.6981   84.4301   12.6738 C.3     1  UNL1        0.2315
     35 O          62.8859   85.9146   12.7796 O.3     1  UNL1       -0.3254
     36 C          62.6904   82.9378   12.8246 C.ar    1  UNL1        0.0410
     37 C          61.9292   82.3016   13.9497 C.ar    1  UNL1        0.0022
     38 C          61.9215   80.8092   14.1005 C.ar    1  UNL1        0.0113
     39 C          62.6748   79.9530   13.1263 C.ar    1  UNL1        0.0585
     40 CL         62.6671   78.4606   13.2770 Cl      1  UNL1       -0.0822
     41 C          63.4360   80.5891   12.0011 C.ar    1  UNL1        0.0226
     42 C          63.4438   82.0815   11.8502 C.ar    1  UNL1        0.0591
     43 CL         64.2049   82.7177   10.7251 Cl      1  UNL1       -0.0824
     44 C          63.5592   84.3921   13.9014 C.3     1  UNL1        0.1897
     45 N          63.1730   85.1872   15.1133 N.ar    1  UNL1       -0.2246
     46 C          62.0453   84.8734   16.0511 C.ar    1  UNL1        0.1974
     47 N          62.0220   85.9279   17.1176 N.ar    1  UNL1       -0.2007
     48 C          63.1354   86.8936   16.8388 C.ar    1  UNL1        0.2210
     49 N          63.8468   86.4358   15.6001 N.ar    1  UNL1       -0.1450
@<TRIPOS>BOND
     1    27    28    1
     2    28    25    1
     3    25    26    1
     4    25    19    1
     5    19    20   ar
     6    20    21   ar
     7    21    22   ar
     8    22    13    1
     9    13    14   ar
    10    14    15   ar
    11    15    16   ar
    12    16     7    1
    13     7     8    1
    14     8     9    1
    15     9    10    1
    16    10     1    1
    17     1     2   ar
    18     2     3   ar
    19     3     4   ar
    20     4    29    1
    21    29    30    1
    22    31    30    1
    23    31    32    1
    24    32    33    1
    25    33    34    1
    26    34    44    1
    27    44    45    1
    28    45    46   ar
    29    46    47   ar
    30    47    48   ar
    31    48    49   ar
    32    34    36    1
    33    36    37   ar
    34    37    38   ar
    35    38    39   ar
    36    39    40    1
    37    39    41   ar
    38    41    42   ar
    39    42    43    1
    40    34    35    1
    41     4     5   ar
    42     5     6   ar
    43    10    11    1
    44    11    12    1
    45    16    17   ar
    46    17    18   ar
    47    22    23   ar
    48    23    24    2
    49    23    19   ar
    50    18    13   ar
    51    12     7    1
    52     6     1   ar
    53    35    31    1
    54    49    45   ar
    55    42    36   ar
@<TRIPOS>MOLECULE
*****
 49 55 0 0 0
SMALL
GASTEIGER

@<TRIPOS>ATOM
      1 C          60.0782   90.0218    7.2418 C.ar    1  UNL1        0.0481
      2 C          59.4454   88.6726    7.4120 C.ar    1  UNL1        0.0176
      3 C          59.5654   87.9473    8.7195 C.ar    1  UNL1        0.0382
      4 C          60.3182   88.5714    9.8570 C.ar    1  UNL1        0.1388
      5 C          60.9511   89.9208    9.6868 C.ar    1  UNL1        0.0382
      6 C          60.8311   90.6459    8.3792 C.ar    1  UNL1        0.0176
      7 N          59.7181   92.1973    3.3192 N.pl3   1  UNL1       -0.3041
      8 C          61.0468   91.6570    3.7578 C.3     1  UNL1        0.1122
      9 C          61.1669   90.9318    5.0654 C.3     1  UNL1        0.1122
     10 N          59.9582   90.7470    5.9343 N.pl3   1  UNL1       -0.3041
     11 C          58.6295   91.2874    5.4956 C.3     1  UNL1        0.1122
     12 C          58.5094   92.0126    4.1880 C.3     1  UNL1        0.1122
     13 C          59.3579   94.3728   -0.6036 C.ar    1  UNL1        0.0699
     14 C          59.0130   92.9154   -0.5198 C.ar    1  UNL1        0.0190
     15 C          59.1330   92.1903    0.7878 C.ar    1  UNL1        0.0160
     16 C          59.5981   92.9225    2.0115 C.ar    1  UNL1        0.0480
     17 C          59.9430   94.3799    1.9278 C.ar    1  UNL1        0.0160
     18 C          59.8229   95.1050    0.6202 C.ar    1  UNL1        0.0190
     19 N          59.5487   95.7423   -4.2304 N.ar    1  UNL1       -0.2024
     20 N          58.5573   96.6856   -3.6161 N.ar    1  UNL1       -0.1442
     21 C          58.3651   96.2874   -2.1828 C.ar    1  UNL1        0.2073
     22 N          59.2378   95.0980   -1.9112 N.ar    1  UNL1       -0.2398
     23 C          59.9693   94.7611   -3.1766 C.ar    1  UNL1        0.3522
     24 O          60.9493   93.6399   -3.3568 O.2     1  UNL1       -0.2444
     25 C          60.0343   95.7745   -5.6492 C.3     1  UNL1        0.1099
     26 C          59.1321   96.2714   -6.7396 C.3     1  UNL1        0.0265
     27 C          61.6520   94.4048   -7.1515 C.3     1  UNL1        0.0021
     28 C          61.4222   95.3098   -5.9777 C.3     1  UNL1        0.0245
     29 O          60.4383   87.8463   11.1645 O.3     1  UNL1       -0.4727
     30 C          61.7454   87.2266   11.5612 C.3     1  UNL1        0.2374
     31 C          61.9431   85.7453   11.4318 C.3     1  UNL1        0.1909
     32 C          61.7065   84.9289   10.1958 C.3     1  UNL1        0.1783
     33 O          62.0293   83.4994   10.5157 O.3     1  UNL1       -0.3266
     34 C          62.4653   83.4323   11.9494 C.3     1  UNL1        0.2315
     35 O          62.4120   84.8204   12.5155 O.3     1  UNL1       -0.3254
     36 C          62.6163   81.9662   11.6708 C.ar    1  UNL1        0.0410
     37 C          63.1999   81.5067   10.3676 C.ar    1  UNL1        0.0022
     38 C          63.3509   80.0405   10.0890 C.ar    1  UNL1        0.0113
     39 C          62.9184   79.0339   11.1134 C.ar    1  UNL1        0.0585
     40 CL         63.0695   77.5678   10.8348 Cl      1  UNL1       -0.0822
     41 C          62.3349   79.4934   12.4167 C.ar    1  UNL1        0.0226
     42 C          62.1838   80.9596   12.6954 C.ar    1  UNL1        0.0591
     43 CL         61.6002   81.4191   13.9985 Cl      1  UNL1       -0.0824
     44 C          62.9329   83.0587   13.3248 C.3     1  UNL1        0.1897
     45 N          63.5189   84.1037   14.2274 N.ar    1  UNL1       -0.2246
     46 C          64.9285   84.6146   14.1861 C.ar    1  UNL1        0.1974
     47 N          65.0789   85.6478   15.2629 N.ar    1  UNL1       -0.2007
     48 C          63.7621   85.7756   15.9699 C.ar    1  UNL1        0.2210
     49 N          62.7980   84.8212   15.3299 N.ar    1  UNL1       -0.1450
@<TRIPOS>BOND
     1    27    28    1
     2    28    25    1
     3    25    26    1
     4    25    19    1
     5    19    20   ar
     6    20    21   ar
     7    21    22   ar
     8    22    13    1
     9    13    14   ar
    10    14    15   ar
    11    15    16   ar
    12    16     7    1
    13     7     8    1
    14     8     9    1
    15     9    10    1
    16    10     1    1
    17     1     2   ar
    18     2     3   ar
    19     3     4   ar
    20     4    29    1
    21    29    30    1
    22    31    30    1
    23    31    32    1
    24    32    33    1
    25    33    34    1
    26    34    44    1
    27    44    45    1
    28    45    46   ar
    29    46    47   ar
    30    47    48   ar
    31    48    49   ar
    32    34    36    1
    33    36    37   ar
    34    37    38   ar
    35    38    39   ar
    36    39    40    1
    37    39    41   ar
    38    41    42   ar
    39    42    43    1
    40    34    35    1
    41     4     5   ar
    42     5     6   ar
    43    10    11    1
    44    11    12    1
    45    16    17   ar
    46    17    18   ar
    47    22    23   ar
    48    23    24    2
    49    23    19   ar
    50    18    13   ar
    51    12     7    1
    52     6     1   ar
    53    35    31    1
    54    49    45   ar
    55    42    36   ar
