@<TRIPOS>MOLECULE
*****
 20 21 0 0 0
SMALL
GASTEIGER

@<TRIPOS>ATOM
      1 C          63.1988   83.8923   13.7467 C.3     1  UNL1        0.1508
      2 C          63.1435   84.1757   12.2747 C.ar    1  UNL1        0.0026
      3 C          63.9608   83.3550   11.3216 C.ar    1  UNL1       -0.0014
      4 C          63.9055   83.6384    9.8497 C.ar    1  UNL1        0.0120
      5 C          63.0329   84.7427    9.3309 C.ar    1  UNL1        0.0682
      6 CL         62.9776   85.0261    7.8589 Cl      1  UNL1       -0.0814
      7 C          62.2156   85.5634   10.2839 C.ar    1  UNL1        0.0679
      8 CL         61.3430   86.6677    9.7650 Cl      1  UNL1       -0.0814
      9 C          62.2709   85.2800   11.7558 C.ar    1  UNL1        0.0099
     10 N          63.2932   85.0250   14.7255 N.ar    1  UNL1       -0.1490
     11 N          63.9724   86.3412   14.4881 N.ar    1  UNL1       -0.0452
     12 N          63.8239   87.1700   15.7295 N.ar    1  UNL1       -0.1123
     13 C          63.0528   86.3661   16.7341 C.ar    1  UNL1        0.1838
     14 C          62.6759   86.8099   18.1165 C.3     1  UNL1        0.0776
     15 N          62.7249   85.0404   16.1136 N.ar    1  UNL1       -0.1340
     16 C          63.1598   82.4762   14.2398 C.3     1  UNL1        0.0479
     17 C          61.8515   81.7473   14.3244 C.3     1  UNL1        0.0710
     18 C          62.6180   80.0401   12.5223 C.3     1  UNL1        0.0859
     19 N          61.6793   80.4317   13.6248 N.3     1  UNL1       -0.2962
     20 H          61.7459   79.7072   14.3396 H       1  UNL1        0.1233
@<TRIPOS>BOND
     1    18    19    1
     2    19    17    1
     3    17    16    1
     4     1    16    1
     5     1     2    1
     6     2     3   ar
     7     3     4   ar
     8     4     5   ar
     9     5     6    1
    10     5     7   ar
    11     7     8    1
    12     7     9   ar
    13     1    10    1
    14    10    11   ar
    15    11    12   ar
    16    12    13   ar
    17    13    14    1
    18    13    15   ar
    19     9     2   ar
    20    15    10   ar
    21    19    20    1
@<TRIPOS>MOLECULE
*****
 20 21 0 0 0
SMALL
GASTEIGER

@<TRIPOS>ATOM
      1 C          61.4463   86.6494    9.2962 C.3     1  UNL1        0.1508
      2 C          62.2145   85.5837   10.0204 C.ar    1  UNL1        0.0026
      3 C          63.1252   84.6669    9.2589 C.ar    1  UNL1       -0.0014
      4 C          63.8932   83.6013    9.9831 C.ar    1  UNL1        0.0120
      5 C          63.7506   83.4526   11.4688 C.ar    1  UNL1        0.0682
      6 CL         64.5188   82.3869   12.1931 Cl      1  UNL1       -0.0814
      7 C          62.8400   84.3694   12.2304 C.ar    1  UNL1        0.0679
      8 CL         62.6974   84.2207   13.7162 Cl      1  UNL1       -0.0814
      9 C          62.0719   85.4350   11.5062 C.ar    1  UNL1        0.0099
     10 N          61.2414   87.9912    9.9346 N.ar    1  UNL1       -0.1490
     11 N          62.2963   89.0356   10.1499 N.ar    1  UNL1       -0.0452
     12 N          61.6524   90.2141   10.8181 N.ar    1  UNL1       -0.1123
     13 C          60.1995   89.8980   11.0159 C.ar    1  UNL1        0.1838
     14 C          59.1796   90.7978   11.6487 C.3     1  UNL1        0.0776
     15 N          59.9455   88.5242   10.4699 N.ar    1  UNL1       -0.1340
     16 C          60.8832   86.3732    7.9337 C.3     1  UNL1        0.0479
     17 C          59.3976   86.3420    7.7283 C.3     1  UNL1        0.0710
     18 C          59.3755   88.8531    7.0623 C.3     1  UNL1        0.0859
     19 N          58.6447   87.6196    7.5030 N.3     1  UNL1       -0.2962
     20 H          57.9402   87.4247    6.7915 H       1  UNL1        0.1233
@<TRIPOS>BOND
     1    18    19    1
     2    19    17    1
     3    17    16    1
     4     1    16    1
     5     1     2    1
     6     2     3   ar
     7     3     4   ar
     8     4     5   ar
     9     5     6    1
    10     5     7   ar
    11     7     8    1
    12     7     9   ar
    13     1    10    1
    14    10    11   ar
    15    11    12   ar
    16    12    13   ar
    17    13    14    1
    18    13    15   ar
    19     9     2   ar
    20    15    10   ar
    21    19    20    1
@<TRIPOS>MOLECULE
*****
 20 21 0 0 0
SMALL
GASTEIGER

@<TRIPOS>ATOM
      1 C          63.7366   90.6992   12.8820 C.3     1  UNL1        0.1508
      2 C          62.9631   89.9237   11.8571 C.ar    1  UNL1        0.0026
      3 C          62.2201   90.6466   10.7730 C.ar    1  UNL1       -0.0014
      4 C          61.4466   89.8710    9.7483 C.ar    1  UNL1        0.0120
      5 C          61.4161   88.3725    9.8076 C.ar    1  UNL1        0.0682
      6 CL         60.6426   87.5969    8.7828 Cl      1  UNL1       -0.0814
      7 C          62.1591   87.6496   10.8917 C.ar    1  UNL1        0.0679
      8 CL         62.1286   86.1511   10.9510 Cl      1  UNL1       -0.0814
      9 C          62.9326   88.4251   11.9165 C.ar    1  UNL1        0.0099
     10 N          63.5589   90.3992   14.3409 N.ar    1  UNL1       -0.1490
     11 N          63.5619   91.4041   15.4544 N.ar    1  UNL1       -0.0452
     12 N          63.3519   90.6676   16.7442 N.ar    1  UNL1       -0.1123
     13 C          63.2191   89.2074   16.4277 C.ar    1  UNL1        0.1838
     14 C          62.9973   88.1063   17.4219 C.3     1  UNL1        0.0776
     15 N          63.3471   89.0415   14.9424 N.ar    1  UNL1       -0.1340
     16 C          64.6877   91.7748   12.4479 C.3     1  UNL1        0.0479
     17 C          65.9457   92.0225   13.2265 C.3     1  UNL1        0.0710
     18 C          67.2475   93.4318   14.9783 C.3     1  UNL1        0.0859
     19 N          65.9511   93.0226   14.3444 N.3     1  UNL1       -0.2962
     20 H          65.5198   93.8726   13.9812 H       1  UNL1        0.1233
@<TRIPOS>BOND
     1    18    19    1
     2    19    17    1
     3    17    16    1
     4     1    16    1
     5     1     2    1
     6     2     3   ar
     7     3     4   ar
     8     4     5   ar
     9     5     6    1
    10     5     7   ar
    11     7     8    1
    12     7     9   ar
    13     1    10    1
    14    10    11   ar
    15    11    12   ar
    16    12    13   ar
    17    13    14    1
    18    13    15   ar
    19     9     2   ar
    20    15    10   ar
    21    19    20    1
@<TRIPOS>MOLECULE
*****
 20 21 0 0 0
SMALL
GASTEIGER

@<TRIPOS>ATOM
      1 C          64.3275   90.5829   13.5868 C.3     1  UNL1        0.1508
      2 C          64.0001   89.5408   14.6149 C.ar    1  UNL1        0.0026
      3 C          63.2937   89.9306   15.8794 C.ar    1  UNL1       -0.0014
      4 C          62.9663   88.8886   16.9074 C.ar    1  UNL1        0.0120
      5 C          63.3454   87.4566   16.6709 C.ar    1  UNL1        0.0682
      6 CL         63.0180   86.4145   17.6990 Cl      1  UNL1       -0.0814
      7 C          64.0518   87.0668   15.4064 C.ar    1  UNL1        0.0679
      8 CL         64.4308   85.6349   15.1700 Cl      1  UNL1       -0.0814
      9 C          64.3791   88.1089   14.3784 C.ar    1  UNL1        0.0099
     10 N          65.3668   91.6242   13.8790 N.ar    1  UNL1       -0.1490
     11 N          65.6205   92.8662   13.0770 N.ar    1  UNL1       -0.0452
     12 N          66.7455   93.6159   13.7269 N.ar    1  UNL1       -0.1123
     13 C          67.1871   92.8373   14.9305 C.ar    1  UNL1        0.1838
     14 C          68.2876   93.2221   15.8744 C.3     1  UNL1        0.0776
     15 N          66.3351   91.6064   15.0245 N.ar    1  UNL1       -0.1340
     16 C          63.6155   90.5837   12.2666 C.3     1  UNL1        0.0479
     17 C          62.4726   89.6413   12.0302 C.3     1  UNL1        0.0710
     18 C          59.8828   89.7345   11.8458 C.3     1  UNL1        0.0859
     19 N          61.1350   89.9139   12.6519 N.3     1  UNL1       -0.2962
     20 H          61.0552   89.2977   13.4608 H       1  UNL1        0.1233
@<TRIPOS>BOND
     1    18    19    1
     2    19    17    1
     3    17    16    1
     4     1    16    1
     5     1     2    1
     6     2     3   ar
     7     3     4   ar
     8     4     5   ar
     9     5     6    1
    10     5     7   ar
    11     7     8    1
    12     7     9   ar
    13     1    10    1
    14    10    11   ar
    15    11    12   ar
    16    12    13   ar
    17    13    14    1
    18    13    15   ar
    19     9     2   ar
    20    15    10   ar
    21    19    20    1
@<TRIPOS>MOLECULE
*****
 20 21 0 0 0
SMALL
GASTEIGER

@<TRIPOS>ATOM
      1 C          61.3213   87.5405   10.1277 C.3     1  UNL1        0.1508
      2 C          62.0507   86.2304   10.1686 C.ar    1  UNL1        0.0026
      3 C          62.7313   85.7122    8.9364 C.ar    1  UNL1       -0.0014
      4 C          63.4607   84.4021    8.9774 C.ar    1  UNL1        0.0120
      5 C          63.5095   83.6103   10.2504 C.ar    1  UNL1        0.0682
      6 CL         64.2389   82.3002   10.2913 Cl      1  UNL1       -0.0814
      7 C          62.8289   84.1285   11.4825 C.ar    1  UNL1        0.0679
      8 CL         62.8777   83.3367   12.7556 Cl      1  UNL1       -0.0814
      9 C          62.0995   85.4386   11.4416 C.ar    1  UNL1        0.0099
     10 N          61.9723   88.7786   10.6694 N.ar    1  UNL1       -0.1490
     11 N          62.0014   90.1226   10.0041 N.ar    1  UNL1       -0.0452
     12 N          62.7555   91.0647   10.8951 N.ar    1  UNL1       -0.1123
     13 C          63.1926   90.3028   12.1110 C.ar    1  UNL1        0.1838
     14 C          63.9761   90.8566   13.2640 C.3     1  UNL1        0.0776
     15 N          62.7085   88.8899   11.9715 N.ar    1  UNL1       -0.1340
     16 C          59.9410   87.6125    9.5451 C.3     1  UNL1        0.0479
     17 C          59.7554   87.9496    8.0952 C.3     1  UNL1        0.0710
     18 C          59.3242   89.7589    6.2814 C.3     1  UNL1        0.0859
     19 N          59.8272   89.3777    7.6421 N.3     1  UNL1       -0.2962
     20 H          59.2961   89.9278    8.3171 H       1  UNL1        0.1233
@<TRIPOS>BOND
     1    18    19    1
     2    19    17    1
     3    17    16    1
     4     1    16    1
     5     1     2    1
     6     2     3   ar
     7     3     4   ar
     8     4     5   ar
     9     5     6    1
    10     5     7   ar
    11     7     8    1
    12     7     9   ar
    13     1    10    1
    14    10    11   ar
    15    11    12   ar
    16    12    13   ar
    17    13    14    1
    18    13    15   ar
    19     9     2   ar
    20    15    10   ar
    21    19    20    1
@<TRIPOS>MOLECULE
*****
 20 21 0 0 0
SMALL
GASTEIGER

@<TRIPOS>ATOM
      1 C          65.9427   93.0496   11.7514 C.3     1  UNL1        0.1508
      2 C          64.8017   92.0773   11.6977 C.ar    1  UNL1        0.0026
      3 C          64.1035   91.8113   10.3971 C.ar    1  UNL1       -0.0014
      4 C          62.9626   90.8391   10.3435 C.ar    1  UNL1        0.0120
      5 C          62.5199   90.1327   11.5906 C.ar    1  UNL1        0.0682
      6 CL         61.3789   89.1604   11.5369 Cl      1  UNL1       -0.0814
      7 C          63.2181   90.3987   12.8912 C.ar    1  UNL1        0.0679
      8 CL         62.7754   89.6924   14.1383 Cl      1  UNL1       -0.0814
      9 C          64.3590   91.3710   12.9448 C.ar    1  UNL1        0.0099
     10 N          67.0384   92.8653   12.7591 N.ar    1  UNL1       -0.1490
     11 N          68.2710   92.0297   12.5785 N.ar    1  UNL1       -0.0452
     12 N          69.0883   92.1321   13.8321 N.ar    1  UNL1       -0.1123
     13 C          68.3608   93.0310   14.7875 C.ar    1  UNL1        0.1838
     14 C          68.8197   93.4103   16.1643 C.3     1  UNL1        0.0776
     15 N          67.0940   93.4841   14.1243 N.ar    1  UNL1       -0.1340
     16 C          65.9880   94.2062   10.7974 C.3     1  UNL1        0.0479
     17 C          66.8823   94.1516    9.5943 C.3     1  UNL1        0.0710
     18 C          68.7035   92.3993    8.9923 C.3     1  UNL1        0.0859
     19 N          68.2859   93.6392    9.7259 N.3     1  UNL1       -0.2962
     20 H          68.9034   94.3884    9.4131 H       1  UNL1        0.1233
@<TRIPOS>BOND
     1    18    19    1
     2    19    17    1
     3    17    16    1
     4     1    16    1
     5     1     2    1
     6     2     3   ar
     7     3     4   ar
     8     4     5   ar
     9     5     6    1
    10     5     7   ar
    11     7     8    1
    12     7     9   ar
    13     1    10    1
    14    10    11   ar
    15    11    12   ar
    16    12    13   ar
    17    13    14    1
    18    13    15   ar
    19     9     2   ar
    20    15    10   ar
    21    19    20    1
@<TRIPOS>MOLECULE
*****
 20 21 0 0 0
SMALL
GASTEIGER

@<TRIPOS>ATOM
      1 C          64.4437   90.2531   13.8511 C.3     1  UNL1        0.1508
      2 C          64.0357   89.2165   14.8557 C.ar    1  UNL1        0.0026
      3 C          63.3226   89.6271   16.1097 C.ar    1  UNL1       -0.0014
      4 C          62.9147   88.5905   17.1142 C.ar    1  UNL1        0.0120
      5 C          63.2199   87.1432   16.8646 C.ar    1  UNL1        0.0682
      6 CL         62.8120   86.1066   17.8691 Cl      1  UNL1       -0.0814
      7 C          63.9331   86.7326   15.6105 C.ar    1  UNL1        0.0679
      8 CL         64.2383   85.2854   15.3609 Cl      1  UNL1       -0.0814
      9 C          64.3410   87.7692   14.6060 C.ar    1  UNL1        0.0099
     10 N          63.6095   90.4785   12.6250 N.ar    1  UNL1       -0.1490
     11 N          63.9930   91.3126   11.4388 N.ar    1  UNL1       -0.0452
     12 N          62.8658   91.2590   10.4505 N.ar    1  UNL1       -0.1123
     13 C          61.7856   90.3917   11.0260 C.ar    1  UNL1        0.1838
     14 C          60.4759   90.0643   10.3723 C.3     1  UNL1        0.0776
     15 N          62.2453   89.9094   12.3699 N.ar    1  UNL1       -0.1340
     16 C          65.6857   91.0643   14.0727 C.3     1  UNL1        0.0479
     17 C          65.7133   92.1172   15.1408 C.3     1  UNL1        0.0710
     18 C          66.4412   93.9136   13.4108 C.3     1  UNL1        0.0859
     19 N          66.2570   93.4814   14.8353 N.3     1  UNL1       -0.2962
     20 H          65.6240   94.1543   15.2677 H       1  UNL1        0.1233
@<TRIPOS>BOND
     1    18    19    1
     2    19    17    1
     3    17    16    1
     4     1    16    1
     5     1     2    1
     6     2     3   ar
     7     3     4   ar
     8     4     5   ar
     9     5     6    1
    10     5     7   ar
    11     7     8    1
    12     7     9   ar
    13     1    10    1
    14    10    11   ar
    15    11    12   ar
    16    12    13   ar
    17    13    14    1
    18    13    15   ar
    19     9     2   ar
    20    15    10   ar
    21    19    20    1
@<TRIPOS>MOLECULE
*****
 20 21 0 0 0
SMALL
GASTEIGER

@<TRIPOS>ATOM
      1 C          62.2664   86.3107   10.5084 C.3     1  UNL1        0.1508
      2 C          62.6768   85.0354   11.1833 C.ar    1  UNL1        0.0026
      3 C          63.3958   83.9731   10.4059 C.ar    1  UNL1       -0.0014
      4 C          63.8062   82.6980   11.0808 C.ar    1  UNL1        0.0120
      5 C          63.4975   82.4851   12.5332 C.ar    1  UNL1        0.0682
      6 CL         63.9078   81.2099   13.2081 Cl      1  UNL1       -0.0814
      7 C          62.7784   83.5474   13.3106 C.ar    1  UNL1        0.0679
      8 CL         62.4698   83.3346   14.7630 Cl      1  UNL1       -0.0814
      9 C          62.3681   84.8226   12.6357 C.ar    1  UNL1        0.0099
     10 N          62.1551   87.5778   11.3034 N.ar    1  UNL1       -0.1490
     11 N          60.9405   88.4524   11.4030 N.ar    1  UNL1       -0.0452
     12 N          61.2736   89.6079   12.2995 N.ar    1  UNL1       -0.1123
     13 C          62.6940   89.4475   12.7541 C.ar    1  UNL1        0.1838
     14 C          63.4389   90.3783   13.6645 C.3     1  UNL1        0.0776
     15 N          63.2388   88.1928   12.1385 N.ar    1  UNL1       -0.1340
     16 C          61.9674   86.3187    9.0386 C.3     1  UNL1        0.0479
     17 C          60.5524   86.1803    8.5603 C.3     1  UNL1        0.0710
     18 C          59.5091   88.4331    7.7948 C.3     1  UNL1        0.0859
     19 N          59.5757   87.2986    8.7737 N.3     1  UNL1       -0.2962
     20 H          58.6471   86.8775    8.8001 H       1  UNL1        0.1233
@<TRIPOS>BOND
     1    18    19    1
     2    19    17    1
     3    17    16    1
     4     1    16    1
     5     1     2    1
     6     2     3   ar
     7     3     4   ar
     8     4     5   ar
     9     5     6    1
    10     5     7   ar
    11     7     8    1
    12     7     9   ar
    13     1    10    1
    14    10    11   ar
    15    11    12   ar
    16    12    13   ar
    17    13    14    1
    18    13    15   ar
    19     9     2   ar
    20    15    10   ar
    21    19    20    1
@<TRIPOS>MOLECULE
*****
 20 21 0 0 0
SMALL
GASTEIGER

@<TRIPOS>ATOM
      1 C          65.8570   91.9076   13.0657 C.3     1  UNL1        0.1508
      2 C          66.3470   92.8047   11.9679 C.ar    1  UNL1        0.0026
      3 C          65.9926   94.2622   11.9758 C.ar    1  UNL1       -0.0014
      4 C          66.4826   95.1591   10.8780 C.ar    1  UNL1        0.0120
      5 C          67.3270   94.5986    9.7722 C.ar    1  UNL1        0.0682
      6 CL         67.8170   95.4957    8.6743 Cl      1  UNL1       -0.0814
      7 C          67.6814   93.1412    9.7642 C.ar    1  UNL1        0.0679
      8 CL         68.5258   92.5807    8.6584 Cl      1  UNL1       -0.0814
      9 C          67.1914   92.2442   10.8621 C.ar    1  UNL1        0.0099
     10 N          64.5548   91.1787   12.9137 N.ar    1  UNL1       -0.1490
     11 N          63.8933   90.3284   13.9574 N.ar    1  UNL1       -0.0452
     12 N          62.6152   89.7963   13.3800 N.ar    1  UNL1       -0.1123
     13 C          62.4869   90.3177   11.9794 C.ar    1  UNL1        0.1838
     14 C          61.3580   90.0346   11.0331 C.3     1  UNL1        0.0776
     15 N          63.6856   91.1721   11.6912 N.ar    1  UNL1       -0.1340
     16 C          66.6691   91.7395   14.3156 C.3     1  UNL1        0.0479
     17 C          66.2495   92.4274   15.5809 C.3     1  UNL1        0.0710
     18 C          68.5837   93.5453   15.8082 C.3     1  UNL1        0.0859
     19 N          67.1382   93.4646   16.2008 N.3     1  UNL1       -0.2962
     20 H          66.7242   94.3722   15.9883 H       1  UNL1        0.1233
@<TRIPOS>BOND
     1    18    19    1
     2    19    17    1
     3    17    16    1
     4     1    16    1
     5     1     2    1
     6     2     3   ar
     7     3     4   ar
     8     4     5   ar
     9     5     6    1
    10     5     7   ar
    11     7     8    1
    12     7     9   ar
    13     1    10    1
    14    10    11   ar
    15    11    12   ar
    16    12    13   ar
    17    13    14    1
    18    13    15   ar
    19     9     2   ar
    20    15    10   ar
    21    19    20    1
