@<TRIPOS>MOLECULE
*****
 56 61 0 0 0
SMALL
GASTEIGER

@<TRIPOS>ATOM
      1 C          62.0029   85.7682   10.9564 C.3     1  UNL1        0.1269
      2 O          61.0142   86.2867   11.9582 O.3     1  UNL1       -0.3830
      3 H          60.7513   87.1884   11.7161 H       1  UNL1        0.2104
      4 C          62.5680   84.3868   11.1062 C.3     1  UNL1        0.0401
      5 C          63.1275   83.9443   12.4257 C.3     1  UNL1        0.0833
      6 O          61.4839   84.5422   14.3469 O.2     1  UNL1       -0.2751
      7 C          62.8117   84.7177   13.6716 C.2     1  UNL1        0.2226
      8 N          63.8237   85.6666   14.2421 N.am    1  UNL1       -0.2999
      9 H          64.6952   85.7817   13.7988 H       1  UNL1        0.1498
     10 C          63.5080   86.4399   15.4879 C.3     1  UNL1        0.1278
     11 C          63.6855   87.9292   15.5114 C.ar    1  UNL1        0.0320
     12 C          64.1788   88.6451   14.2891 C.ar    1  UNL1        0.0004
     13 C          64.3563   90.1344   14.3126 C.ar    1  UNL1       -0.0001
     14 C          64.0406   90.9077   15.5584 C.ar    1  UNL1        0.0031
     15 C          63.5473   90.1918   16.7808 C.ar    1  UNL1        0.0366
     16 C          63.3697   88.7026   16.7572 C.ar    1  UNL1        0.1362
     17 O          62.8764   87.9867   17.9796 O.3     1  UNL1       -0.4730
     18 C          62.6989   86.4974   17.9561 C.3     1  UNL1        0.2364
     19 C          63.0147   85.7240   16.7102 C.3     1  UNL1        0.1762
     20 O          62.8371   84.2348   16.6867 O.3     1  UNL1       -0.3788
     21 H          62.5141   83.9340   17.5504 H       1  UNL1        0.2106
     22 C          64.0029   82.7284   12.4993 C.3     1  UNL1        0.0355
     23 C          63.5107   81.4164   11.9644 C.ar    1  UNL1       -0.0217
     24 C          62.9500   80.3875   12.9008 C.ar    1  UNL1       -0.0043
     25 C          62.4577   79.0754   12.3658 C.ar    1  UNL1       -0.0003
     26 C          62.5263   78.7922   10.8944 C.ar    1  UNL1       -0.0000
     27 C          63.0870   79.8211    9.9580 C.ar    1  UNL1       -0.0003
     28 C          63.5792   81.1332   10.4929 C.ar    1  UNL1       -0.0043
     29 C          62.4266   86.6311    9.8049 C.3     1  UNL1        0.1021
     30 N          61.4009   87.4031    9.0291 N.3     1  UNL1       -0.2621
     31 C          60.6511   86.7409    7.9113 C.3     1  UNL1        0.0901
     32 C          59.6254   87.5130    7.1355 C.3     1  UNL1        0.0900
     33 N          59.3494   88.9472    7.4775 N.3     1  UNL1       -0.2635
     34 C          60.0992   89.6093    8.5952 C.3     1  UNL1        0.0980
     35 C          61.1249   88.8373    9.3710 C.3     1  UNL1        0.1510
     36 C          61.8747   89.4994   10.4888 C.2     1  UNL1        0.2386
     37 O          61.5064   89.2098   11.9138 O.2     1  UNL1       -0.2736
     38 N          62.9927   90.4511   10.1816 N.am    1  UNL1       -0.2961
     39 H          63.2344   90.6412    9.2463 H       1  UNL1        0.1497
     40 C          63.7424   91.1132   11.2994 C.3     1  UNL1        0.1939
     41 C          64.6282   92.2899   11.0147 C.3     1  UNL1        0.4154
     42 F          65.5138   93.4666   10.7301 F       1  UNL1       -0.1682
     43 F          65.4380   91.9762   12.2377 F       1  UNL1       -0.1682
     44 F          63.8183   92.6036    9.7918 F       1  UNL1       -0.1682
     45 C          58.3237   89.7192    6.7017 C.3     1  UNL1        0.1377
     46 C          58.7557   90.6557    5.6124 C.ar    1  UNL1        0.1390
     47 C          57.8783   91.6385    4.8952 C.ar    1  UNL1        0.0375
     48 C          58.7211   92.3639    3.8886 C.ar    1  UNL1        0.0404
     49 C          60.1195   91.8295    3.9837 C.ar    1  UNL1        0.1464
     50 O          60.1409   90.7738    5.0490 O.2     1  UNL1       -0.4563
     51 C          61.2909   92.2730    3.1583 C.ar    1  UNL1        0.0537
     52 C          62.6031   91.5551    3.2718 C.ar    1  UNL1        0.0062
     53 C          63.7744   91.9986    2.4464 C.ar    1  UNL1        0.0208
     54 C          63.6336   93.1600    1.5077 C.ar    1  UNL1        0.0989
     55 N          62.3214   93.8779    1.3942 N.ar    1  UNL1       -0.2422
     56 C          61.1502   93.4344    2.2195 C.ar    1  UNL1        0.1019
@<TRIPOS>BOND
     1     6     7    2
     2     7     8   am
     3    10     8    1
     4    10    11    1
     5    11    12   ar
     6    12    13   ar
     7    13    14   ar
     8    14    15   ar
     9    15    16   ar
    10    16    17    1
    11    17    18    1
    12    18    19    1
    13    19    20    1
    14     7     5    1
    15     5    22    1
    16    22    23    1
    17    23    24   ar
    18    24    25   ar
    19    25    26   ar
    20    26    27   ar
    21    27    28   ar
    22     5     4    1
    23     4     1    1
    24     1     2    1
    25     1    29    1
    26    29    30    1
    27    30    31    1
    28    31    32    1
    29    32    33    1
    30    33    45    1
    31    45    46    1
    32    46    47   ar
    33    47    48   ar
    34    48    49   ar
    35    49    51    1
    36    51    52   ar
    37    52    53   ar
    38    53    54   ar
    39    54    55   ar
    40    55    56   ar
    41    49    50   ar
    42    33    34    1
    43    34    35    1
    44    35    36    1
    45    36    37    2
    46    36    38   am
    47    38    40    1
    48    40    41    1
    49    41    42    1
    50    41    43    1
    51    41    44    1
    52    19    10    1
    53    28    23   ar
    54    35    30    1
    55    16    11   ar
    56    50    46   ar
    57    56    51   ar
    58     8     9    1
    59    20    21    1
    60     2     3    1
    61    38    39    1
@<TRIPOS>MOLECULE
*****
 56 61 0 0 0
SMALL
GASTEIGER

@<TRIPOS>ATOM
      1 C          62.5155   89.8727   13.2317 C.3     1  UNL1        0.1269
      2 O          61.7138   89.4288   14.4193 O.3     1  UNL1       -0.3830
      3 H          61.4541   88.5012   14.3056 H       1  UNL1        0.2104
      4 C          63.0397   91.2764   13.1630 C.3     1  UNL1        0.0401
      5 C          64.5175   91.5223   13.0887 C.3     1  UNL1        0.0833
      6 O          64.8192   91.9450   10.5430 O.2     1  UNL1       -0.2751
      7 C          65.0867   92.3378   11.9657 C.2     1  UNL1        0.2226
      8 N          65.9233   93.5462   12.2655 N.am    1  UNL1       -0.2999
      9 H          66.0988   93.8041   13.1993 H       1  UNL1        0.1498
     10 C          66.4924   94.3618   11.1426 C.3     1  UNL1        0.1278
     11 C          67.3244   93.7019   10.0831 C.ar    1  UNL1        0.0320
     12 C          67.5872   92.2265   10.1466 C.ar    1  UNL1        0.0004
     13 C          68.4191   91.5666    9.0871 C.ar    1  UNL1       -0.0001
     14 C          68.9882   92.3822    7.9642 C.ar    1  UNL1        0.0031
     15 C          68.7254   93.8576    7.9008 C.ar    1  UNL1        0.0366
     16 C          67.8935   94.5174    8.9602 C.ar    1  UNL1        0.1362
     17 O          67.6307   95.9929    8.8968 O.3     1  UNL1       -0.4730
     18 C          66.7988   96.6528    9.9562 C.3     1  UNL1        0.2364
     19 C          66.2296   95.8372   11.0792 C.3     1  UNL1        0.1762
     20 O          65.3977   96.4970   12.1386 O.3     1  UNL1       -0.3788
     21 H          65.3262   97.4457   11.9494 H       1  UNL1        0.2106
     22 C          65.4263   90.9527   14.1374 C.3     1  UNL1        0.0355
     23 C          66.6240   91.7310   14.5951 C.ar    1  UNL1       -0.0217
     24 C          66.5174   92.6427   15.7814 C.ar    1  UNL1       -0.0043
     25 C          67.7152   93.4212   16.2391 C.ar    1  UNL1       -0.0003
     26 C          69.0195   93.2878   15.5105 C.ar    1  UNL1       -0.0000
     27 C          69.1261   92.3761   14.3241 C.ar    1  UNL1       -0.0003
     28 C          67.9284   91.5977   13.8664 C.ar    1  UNL1       -0.0043
     29 C          62.7928   88.9129   12.1128 C.3     1  UNL1        0.1021
     30 N          61.8861   88.8708   10.9186 N.3     1  UNL1       -0.2621
     31 C          61.2799   90.1380   10.3923 C.3     1  UNL1        0.0901
     32 C          60.3732   90.0959    9.1981 C.3     1  UNL1        0.0900
     33 N          60.0727   88.7868    8.5302 N.3     1  UNL1       -0.2635
     34 C          60.6789   87.5198    9.0566 C.3     1  UNL1        0.0980
     35 C          61.5857   87.5618   10.2508 C.3     1  UNL1        0.1510
     36 C          62.1919   86.2948   10.7772 C.2     1  UNL1        0.2386
     37 O          62.8866   85.3505    9.8414 O.2     1  UNL1       -0.2736
     38 N          62.1034   85.9720   12.2394 N.am    1  UNL1       -0.2961
     39 H          61.6474   86.5917   12.8536 H       1  UNL1        0.1497
     40 C          62.7096   84.7049   12.7658 C.3     1  UNL1        0.1939
     41 C          63.9726   84.7568   13.5734 C.3     1  UNL1        0.4154
     42 F          65.2355   84.8087   14.3811 F       1  UNL1       -0.1682
     43 F          63.9634   86.2545   13.4917 F       1  UNL1       -0.1682
     44 F          63.9818   83.2591   13.6551 F       1  UNL1       -0.1682
     45 C          59.1660   88.7448    7.3360 C.3     1  UNL1        0.1377
     46 C          59.2463   89.8219    6.2951 C.ar    1  UNL1        0.1390
     47 C          58.1194   90.7090    5.8556 C.ar    1  UNL1        0.0375
     48 C          58.6441   91.6364    4.7999 C.ar    1  UNL1        0.0404
     49 C          60.0954   91.3224    4.5869 C.ar    1  UNL1        0.1464
     50 O          60.4675   90.2010    5.5110 O.2     1  UNL1       -0.4563
     51 C          61.0134   92.0093    3.6196 C.ar    1  UNL1        0.0537
     52 C          62.4355   91.5525    3.4817 C.ar    1  UNL1        0.0062
     53 C          63.3534   92.2394    2.5145 C.ar    1  UNL1        0.0208
     54 C          62.8493   93.3830    1.6852 C.ar    1  UNL1        0.0989
     55 N          61.4271   93.8398    1.8230 N.ar    1  UNL1       -0.2422
     56 C          60.5093   93.1530    2.7903 C.ar    1  UNL1        0.1019
@<TRIPOS>BOND
     1     6     7    2
     2     7     8   am
     3    10     8    1
     4    10    11    1
     5    11    12   ar
     6    12    13   ar
     7    13    14   ar
     8    14    15   ar
     9    15    16   ar
    10    16    17    1
    11    17    18    1
    12    18    19    1
    13    19    20    1
    14     7     5    1
    15     5    22    1
    16    22    23    1
    17    23    24   ar
    18    24    25   ar
    19    25    26   ar
    20    26    27   ar
    21    27    28   ar
    22     5     4    1
    23     4     1    1
    24     1     2    1
    25     1    29    1
    26    29    30    1
    27    30    31    1
    28    31    32    1
    29    32    33    1
    30    33    45    1
    31    45    46    1
    32    46    47   ar
    33    47    48   ar
    34    48    49   ar
    35    49    51    1
    36    51    52   ar
    37    52    53   ar
    38    53    54   ar
    39    54    55   ar
    40    55    56   ar
    41    49    50   ar
    42    33    34    1
    43    34    35    1
    44    35    36    1
    45    36    37    2
    46    36    38   am
    47    38    40    1
    48    40    41    1
    49    41    42    1
    50    41    43    1
    51    41    44    1
    52    19    10    1
    53    28    23   ar
    54    35    30    1
    55    16    11   ar
    56    50    46   ar
    57    56    51   ar
    58     8     9    1
    59    20    21    1
    60     2     3    1
    61    38    39    1
@<TRIPOS>MOLECULE
*****
 56 61 0 0 0
SMALL
GASTEIGER

@<TRIPOS>ATOM
      1 C          62.0327   89.8047   12.8293 C.3     1  UNL1        0.1269
      2 O          61.0924   89.4338   13.9375 O.3     1  UNL1       -0.3830
      3 H          60.7486   88.5398   13.7842 H       1  UNL1        0.2104
      4 C          62.7033   91.1464   12.8322 C.3     1  UNL1        0.0401
      5 C          64.2003   91.2367   12.8593 C.3     1  UNL1        0.0833
      6 O          64.3532   91.6566   10.2999 O.2     1  UNL1       -0.2751
      7 C          64.9404   91.7830   11.6744 C.2     1  UNL1        0.2226
      8 N          66.2676   92.4557   11.8640 N.am    1  UNL1       -0.2999
      9 H          66.6530   92.5387   12.7661 H       1  UNL1        0.1498
     10 C          67.0076   93.0020   10.6792 C.3     1  UNL1        0.1278
     11 C          66.5626   94.2857   10.0436 C.ar    1  UNL1        0.0320
     12 C          65.3775   95.0232   10.5929 C.ar    1  UNL1        0.0004
     13 C          64.9325   96.3069    9.9573 C.ar    1  UNL1       -0.0001
     14 C          65.6725   96.8532    8.7724 C.ar    1  UNL1        0.0031
     15 C          66.8576   96.1157    8.2232 C.ar    1  UNL1        0.0366
     16 C          67.3026   94.8320    8.8588 C.ar    1  UNL1        0.1362
     17 O          68.4878   94.0945    8.3095 O.3     1  UNL1       -0.4730
     18 C          68.9328   92.8108    8.9451 C.3     1  UNL1        0.2364
     19 C          68.1927   92.2645   10.1299 C.3     1  UNL1        0.1762
     20 O          68.6377   90.9808   10.7655 O.3     1  UNL1       -0.3788
     21 H          69.4113   90.6368   10.2921 H       1  UNL1        0.2106
     22 C          64.9574   90.7806   14.0713 C.3     1  UNL1        0.0355
     23 C          64.3708   89.7347   14.9723 C.ar    1  UNL1       -0.0217
     24 C          64.5604   88.2806   14.6565 C.ar    1  UNL1       -0.0043
     25 C          63.9738   87.2347   15.5577 C.ar    1  UNL1       -0.0003
     26 C          63.1976   87.6429   16.7746 C.ar    1  UNL1       -0.0000
     27 C          63.0080   89.0969   17.0904 C.ar    1  UNL1       -0.0003
     28 C          63.5945   90.1428   16.1893 C.ar    1  UNL1       -0.0043
     29 C          62.3025   88.8338   11.7181 C.3     1  UNL1        0.1021
     30 N          61.4563   88.8572   10.4798 N.3     1  UNL1       -0.2621
     31 C          60.7297   90.1108   10.0915 C.3     1  UNL1        0.0901
     32 C          59.8835   90.1342    8.8532 C.3     1  UNL1        0.0900
     33 N          59.7640   88.9040    8.0031 N.3     1  UNL1       -0.2635
     34 C          60.4906   87.6506    8.3914 C.3     1  UNL1        0.0980
     35 C          61.3368   87.6272    9.6297 C.3     1  UNL1        0.1510
     36 C          62.0634   86.3737   10.0180 C.2     1  UNL1        0.2386
     37 O          63.0292   85.7397    9.0613 O.2     1  UNL1       -0.2736
     38 N          61.8242   85.7542   11.3631 N.am    1  UNL1       -0.2961
     39 H          61.1904   86.1703   11.9910 H       1  UNL1        0.1497
     40 C          62.5508   84.5007   11.7514 C.3     1  UNL1        0.1939
     41 C          62.9639   84.2843   13.1771 C.3     1  UNL1        0.4154
     42 F          63.3770   84.0678   14.6027 F       1  UNL1       -0.1682
     43 F          63.8253   85.5106   13.1137 F       1  UNL1       -0.1682
     44 F          62.1025   83.0579   13.2404 F       1  UNL1       -0.1682
     45 C          58.9178   88.9274    6.7648 C.3     1  UNL1        0.1377
     46 C          59.0246   90.0753    5.8050 C.ar    1  UNL1        0.1390
     47 C          57.9122   91.0008    5.4101 C.ar    1  UNL1        0.0375
     48 C          58.4626   91.9966    4.4327 C.ar    1  UNL1        0.0404
     49 C          59.9153   91.6866    4.2236 C.ar    1  UNL1        0.1464
     50 O          60.2626   90.4991    5.0717 O.2     1  UNL1       -0.4563
     51 C          60.8556   92.4329    3.3242 C.ar    1  UNL1        0.0537
     52 C          62.2764   91.9749    3.1787 C.ar    1  UNL1        0.0062
     53 C          63.2167   92.7213    2.2793 C.ar    1  UNL1        0.0208
     54 C          62.7360   93.9256    1.5255 C.ar    1  UNL1        0.0989
     55 N          61.3150   94.3838    1.6710 N.ar    1  UNL1       -0.2422
     56 C          60.3749   93.6374    2.5704 C.ar    1  UNL1        0.1019
@<TRIPOS>BOND
     1     6     7    2
     2     7     8   am
     3    10     8    1
     4    10    11    1
     5    11    12   ar
     6    12    13   ar
     7    13    14   ar
     8    14    15   ar
     9    15    16   ar
    10    16    17    1
    11    17    18    1
    12    18    19    1
    13    19    20    1
    14     7     5    1
    15     5    22    1
    16    22    23    1
    17    23    24   ar
    18    24    25   ar
    19    25    26   ar
    20    26    27   ar
    21    27    28   ar
    22     5     4    1
    23     4     1    1
    24     1     2    1
    25     1    29    1
    26    29    30    1
    27    30    31    1
    28    31    32    1
    29    32    33    1
    30    33    45    1
    31    45    46    1
    32    46    47   ar
    33    47    48   ar
    34    48    49   ar
    35    49    51    1
    36    51    52   ar
    37    52    53   ar
    38    53    54   ar
    39    54    55   ar
    40    55    56   ar
    41    49    50   ar
    42    33    34    1
    43    34    35    1
    44    35    36    1
    45    36    37    2
    46    36    38   am
    47    38    40    1
    48    40    41    1
    49    41    42    1
    50    41    43    1
    51    41    44    1
    52    19    10    1
    53    28    23   ar
    54    35    30    1
    55    16    11   ar
    56    50    46   ar
    57    56    51   ar
    58     8     9    1
    59    20    21    1
    60     2     3    1
    61    38    39    1
@<TRIPOS>MOLECULE
*****
 56 61 0 0 0
SMALL
GASTEIGER

@<TRIPOS>ATOM
      1 C          62.7353   86.5412   12.0789 C.3     1  UNL1        0.1269
      2 O          61.5818   85.5849   12.0095 O.3     1  UNL1       -0.3830
      3 H          60.8408   86.0052   11.5458 H       1  UNL1        0.2104
      4 C          64.0115   86.1295   12.7511 C.3     1  UNL1        0.0401
      5 C          64.0932   86.0947   14.2484 C.3     1  UNL1        0.0833
      6 O          63.6859   87.3574   16.4823 O.2     1  UNL1       -0.2751
      7 C          64.0649   87.3741   15.0310 C.2     1  UNL1        0.2226
      8 N          64.4155   88.6703   14.3624 N.am    1  UNL1       -0.2999
      9 H          64.6642   88.6813   13.4099 H       1  UNL1        0.1498
     10 C          64.3871   89.9496   15.1449 C.3     1  UNL1        0.1278
     11 C          65.5671   90.8751   15.1122 C.ar    1  UNL1        0.0320
     12 C          66.7754   90.5213   14.2969 C.ar    1  UNL1        0.0004
     13 C          67.9554   91.4468   14.2642 C.ar    1  UNL1       -0.0001
     14 C          67.9271   92.7261   15.0468 C.ar    1  UNL1        0.0031
     15 C          66.7187   93.0800   15.8620 C.ar    1  UNL1        0.0366
     16 C          65.5388   92.1545   15.8947 C.ar    1  UNL1        0.1362
     17 O          64.3304   92.5084   16.7100 O.3     1  UNL1       -0.4730
     18 C          63.1504   91.5829   16.7428 C.3     1  UNL1        0.2364
     19 C          63.1788   90.3035   15.9602 C.3     1  UNL1        0.1762
     20 O          61.9988   89.3780   15.9929 O.3     1  UNL1       -0.3788
     21 H          61.3091   89.7534   16.5624 H       1  UNL1        0.2106
     22 C          64.2033   84.7806   14.9632 C.3     1  UNL1        0.0355
     23 C          63.6229   83.5416   14.3485 C.ar    1  UNL1       -0.0217
     24 C          62.3490   82.9624   14.8886 C.ar    1  UNL1       -0.0043
     25 C          61.7686   81.7233   14.2739 C.ar    1  UNL1       -0.0003
     26 C          62.4621   81.0634   13.1191 C.ar    1  UNL1       -0.0000
     27 C          63.7360   81.6426   12.5790 C.ar    1  UNL1       -0.0003
     28 C          64.3164   82.8817   13.1936 C.ar    1  UNL1       -0.0043
     29 C          62.6126   87.9094   11.4762 C.3     1  UNL1        0.1021
     30 N          61.6620   88.1459   10.3402 N.3     1  UNL1       -0.2621
     31 C          60.9540   86.9881    9.7012 C.3     1  UNL1        0.0901
     32 C          60.0034   87.2247    8.5653 C.3     1  UNL1        0.0900
     33 N          59.7608   88.6191    8.0684 N.3     1  UNL1       -0.2635
     34 C          60.4688   89.7768    8.7073 C.3     1  UNL1        0.0980
     35 C          61.4194   89.5402    9.8433 C.3     1  UNL1        0.1510
     36 C          62.1274   90.6980   10.4823 C.2     1  UNL1        0.2386
     37 O          61.7203   91.1646   11.8485 O.2     1  UNL1       -0.2736
     38 N          63.2425   91.3891    9.7550 N.am    1  UNL1       -0.2961
     39 H          63.5097   91.0829    8.8583 H       1  UNL1        0.1497
     40 C          63.9505   92.5469   10.3940 C.3     1  UNL1        0.1939
     41 C          65.3580   92.3857   10.8871 C.3     1  UNL1        0.4154
     42 F          66.7654   92.2245   11.3803 F       1  UNL1       -0.1682
     43 F          65.8443   93.2927    9.7959 F       1  UNL1       -0.1682
     44 F          64.8717   91.4788   11.9784 F       1  UNL1       -0.1682
     45 C          58.8101   88.8556    6.9324 C.3     1  UNL1        0.1377
     46 C          59.0538   89.9826    5.9728 C.ar    1  UNL1        0.1390
     47 C          58.0671   91.0470    5.5941 C.ar    1  UNL1        0.0375
     48 C          58.7304   91.9652    4.6108 C.ar    1  UNL1        0.0404
     49 C          60.1270   91.4682    4.3817 C.ar    1  UNL1        0.1464
     50 O          60.3269   90.2429    5.2235 O.2     1  UNL1       -0.4563
     51 C          61.1450   92.0877    3.4707 C.ar    1  UNL1        0.0537
     52 C          62.5393   91.5371    3.4194 C.ar    1  UNL1        0.0062
     53 C          63.5574   92.1566    2.5085 C.ar    1  UNL1        0.0208
     54 C          63.1810   93.3268    1.6489 C.ar    1  UNL1        0.0989
     55 N          61.7866   93.8775    1.7002 N.ar    1  UNL1       -0.2422
     56 C          60.7688   93.2580    2.6111 C.ar    1  UNL1        0.1019
@<TRIPOS>BOND
     1     6     7    2
     2     7     8   am
     3    10     8    1
     4    10    11    1
     5    11    12   ar
     6    12    13   ar
     7    13    14   ar
     8    14    15   ar
     9    15    16   ar
    10    16    17    1
    11    17    18    1
    12    18    19    1
    13    19    20    1
    14     7     5    1
    15     5    22    1
    16    22    23    1
    17    23    24   ar
    18    24    25   ar
    19    25    26   ar
    20    26    27   ar
    21    27    28   ar
    22     5     4    1
    23     4     1    1
    24     1     2    1
    25     1    29    1
    26    29    30    1
    27    30    31    1
    28    31    32    1
    29    32    33    1
    30    33    45    1
    31    45    46    1
    32    46    47   ar
    33    47    48   ar
    34    48    49   ar
    35    49    51    1
    36    51    52   ar
    37    52    53   ar
    38    53    54   ar
    39    54    55   ar
    40    55    56   ar
    41    49    50   ar
    42    33    34    1
    43    34    35    1
    44    35    36    1
    45    36    37    2
    46    36    38   am
    47    38    40    1
    48    40    41    1
    49    41    42    1
    50    41    43    1
    51    41    44    1
    52    19    10    1
    53    28    23   ar
    54    35    30    1
    55    16    11   ar
    56    50    46   ar
    57    56    51   ar
    58     8     9    1
    59    20    21    1
    60     2     3    1
    61    38    39    1
@<TRIPOS>MOLECULE
*****
 56 61 0 0 0
SMALL
GASTEIGER

@<TRIPOS>ATOM
      1 C          62.6476   89.2728   12.5777 C.3     1  UNL1        0.1269
      2 O          62.6130   90.7631   12.4114 O.3     1  UNL1       -0.3830
      3 H          62.6669   90.9846   11.4686 H       1  UNL1        0.2104
      4 C          62.5777   88.6694   13.9492 C.3     1  UNL1        0.0401
      5 C          63.5849   89.0565   14.9911 C.3     1  UNL1        0.0833
      6 O          63.7003   91.5100   15.8379 O.2     1  UNL1       -0.2751
      7 C          64.2189   90.4154   14.9531 C.2     1  UNL1        0.2226
      8 N          65.3716   90.6797   14.0303 N.am    1  UNL1       -0.2999
      9 H          65.7120   89.9613   13.4496 H       1  UNL1        0.1498
     10 C          66.0056   92.0386   13.9923 C.3     1  UNL1        0.1278
     11 C          65.8929   92.8846   12.7588 C.ar    1  UNL1        0.0320
     12 C          65.1462   92.3716   11.5632 C.ar    1  UNL1        0.0004
     13 C          65.0335   93.2176   10.3297 C.ar    1  UNL1       -0.0001
     14 C          65.6675   94.5765   10.2917 C.ar    1  UNL1        0.0031
     15 C          66.4142   95.0894   11.4872 C.ar    1  UNL1        0.0366
     16 C          66.5269   94.2434   12.7207 C.ar    1  UNL1        0.1362
     17 O          67.2736   94.7564   13.9163 O.3     1  UNL1       -0.4730
     18 C          67.3863   93.9104   15.1499 C.3     1  UNL1        0.2364
     19 C          66.7522   92.5515   15.1878 C.3     1  UNL1        0.1762
     20 O          66.8649   91.7055   16.4214 O.3     1  UNL1       -0.3788
     21 H          67.3752   92.1821   17.0948 H       1  UNL1        0.2106
     22 C          63.9582   88.0847   16.0711 C.3     1  UNL1        0.0355
     23 C          63.9525   86.6115   15.7891 C.ar    1  UNL1       -0.0217
     24 C          62.9305   85.7272   16.4399 C.ar    1  UNL1       -0.0043
     25 C          62.9249   84.2539   16.1579 C.ar    1  UNL1       -0.0003
     26 C          63.9413   83.6650   15.2251 C.ar    1  UNL1       -0.0000
     27 C          64.9633   84.5493   14.5743 C.ar    1  UNL1       -0.0003
     28 C          64.9689   86.0225   14.8563 C.ar    1  UNL1       -0.0043
     29 C          62.7521   88.3859   11.3725 C.3     1  UNL1        0.1021
     30 N          61.7674   88.5269   10.2499 N.3     1  UNL1       -0.2621
     31 C          60.9863   89.7979   10.0926 C.3     1  UNL1        0.0901
     32 C          60.0016   89.9390    8.9699 C.3     1  UNL1        0.0900
     33 N          59.7978   88.8091    8.0046 N.3     1  UNL1       -0.2635
     34 C          60.5789   87.5382    8.1619 C.3     1  UNL1        0.0980
     35 C          61.5636   87.3971    9.2845 C.3     1  UNL1        0.1510
     36 C          62.3447   86.1262    9.4418 C.2     1  UNL1        0.2386
     37 O          63.1302   85.5807    8.2862 O.2     1  UNL1       -0.2736
     38 N          62.3402   85.4008   10.7548 N.am    1  UNL1       -0.2961
     39 H          61.8247   85.7588   11.5132 H       1  UNL1        0.1497
     40 C          63.1213   84.1299   10.9121 C.3     1  UNL1        0.1939
     41 C          62.6494   83.0727   11.8659 C.3     1  UNL1        0.4154
     42 F          62.1774   82.0156   12.8197 F       1  UNL1       -0.1682
     43 F          63.1607   82.0091   10.9401 F       1  UNL1       -0.1682
     44 F          62.1380   84.1363   12.7917 F       1  UNL1       -0.1682
     45 C          58.8131   88.9501    6.8819 C.3     1  UNL1        0.1377
     46 C          58.9589   90.0680    5.8924 C.ar    1  UNL1        0.1390
     47 C          57.8694   90.9965    5.4442 C.ar    1  UNL1        0.0375
     48 C          58.4569   91.9560    4.4522 C.ar    1  UNL1        0.0404
     49 C          59.9096   91.6204    4.2872 C.ar    1  UNL1        0.1464
     50 O          60.2198   90.4536    5.1772 O.2     1  UNL1       -0.4563
     51 C          60.8814   92.3276    3.3896 C.ar    1  UNL1        0.0537
     52 C          62.3054   91.8628    3.3118 C.ar    1  UNL1        0.0062
     53 C          63.2772   92.5700    2.4143 C.ar    1  UNL1        0.0208
     54 C          62.8250   93.7419    1.5946 C.ar    1  UNL1        0.0989
     55 N          61.4009   94.2067    1.6724 N.ar    1  UNL1       -0.2422
     56 C          60.4292   93.4996    2.5699 C.ar    1  UNL1        0.1019
@<TRIPOS>BOND
     1     6     7    2
     2     7     8   am
     3    10     8    1
     4    10    11    1
     5    11    12   ar
     6    12    13   ar
     7    13    14   ar
     8    14    15   ar
     9    15    16   ar
    10    16    17    1
    11    17    18    1
    12    18    19    1
    13    19    20    1
    14     7     5    1
    15     5    22    1
    16    22    23    1
    17    23    24   ar
    18    24    25   ar
    19    25    26   ar
    20    26    27   ar
    21    27    28   ar
    22     5     4    1
    23     4     1    1
    24     1     2    1
    25     1    29    1
    26    29    30    1
    27    30    31    1
    28    31    32    1
    29    32    33    1
    30    33    45    1
    31    45    46    1
    32    46    47   ar
    33    47    48   ar
    34    48    49   ar
    35    49    51    1
    36    51    52   ar
    37    52    53   ar
    38    53    54   ar
    39    54    55   ar
    40    55    56   ar
    41    49    50   ar
    42    33    34    1
    43    34    35    1
    44    35    36    1
    45    36    37    2
    46    36    38   am
    47    38    40    1
    48    40    41    1
    49    41    42    1
    50    41    43    1
    51    41    44    1
    52    19    10    1
    53    28    23   ar
    54    35    30    1
    55    16    11   ar
    56    50    46   ar
    57    56    51   ar
    58     8     9    1
    59    20    21    1
    60     2     3    1
    61    38    39    1
@<TRIPOS>MOLECULE
*****
 56 61 0 0 0
SMALL
GASTEIGER

@<TRIPOS>ATOM
      1 C          62.4819   88.5714   12.1659 C.3     1  UNL1        0.1269
      2 O          61.1367   88.9796   12.6890 O.3     1  UNL1       -0.3830
      3 H          60.4529   88.7412   12.0437 H       1  UNL1        0.2104
      4 C          63.7140   88.8310   12.9810 C.3     1  UNL1        0.0401
      5 C          63.9010   88.1393   14.2988 C.3     1  UNL1        0.0833
      6 O          65.1636   85.9719   14.9758 O.2     1  UNL1       -0.2751
      7 C          63.9733   86.6421   14.3564 C.2     1  UNL1        0.2226
      8 N          62.8551   85.8151   13.7944 N.am    1  UNL1       -0.2999
      9 H          62.0738   86.2550   13.3878 H       1  UNL1        0.1498
     10 C          62.9272   84.3180   13.8520 C.3     1  UNL1        0.1278
     11 C          63.2533   83.5347   12.6150 C.ar    1  UNL1        0.0320
     12 C          63.5071   84.2486   11.3204 C.ar    1  UNL1        0.0004
     13 C          63.8332   83.4653   10.0834 C.ar    1  UNL1       -0.0001
     14 C          63.9054   81.9682   10.1410 C.ar    1  UNL1        0.0031
     15 C          63.6515   81.2543   11.4356 C.ar    1  UNL1        0.0366
     16 C          63.3255   82.0376   12.6726 C.ar    1  UNL1        0.1362
     17 O          63.0716   81.3237   13.9672 O.3     1  UNL1       -0.4730
     18 C          62.7456   82.1069   15.2042 C.3     1  UNL1        0.2364
     19 C          62.6734   83.6042   15.1466 C.3     1  UNL1        0.1762
     20 O          62.3473   84.3874   16.3836 O.3     1  UNL1       -0.3788
     21 H          62.2131   83.7780   17.1262 H       1  UNL1        0.2106
     22 C          64.0158   88.9447   15.5590 C.3     1  UNL1        0.0355
     23 C          64.7678   90.2425   15.5538 C.ar    1  UNL1       -0.0217
     24 C          64.2741   91.3988   16.3718 C.ar    1  UNL1       -0.0043
     25 C          65.0262   92.6966   16.3666 C.ar    1  UNL1       -0.0003
     26 C          66.2720   92.8382   15.5433 C.ar    1  UNL1       -0.0000
     27 C          66.7658   91.6819   14.7252 C.ar    1  UNL1       -0.0003
     28 C          66.0138   90.3841   14.7305 C.ar    1  UNL1       -0.0043
     29 C          62.5950   87.9035   10.8275 C.3     1  UNL1        0.1021
     30 N          61.5977   88.2098    9.7498 N.3     1  UNL1       -0.2621
     31 C          60.9302   87.0913    9.0058 C.3     1  UNL1        0.0901
     32 C          59.9328   87.3976    7.9280 C.3     1  UNL1        0.0900
     33 N          59.6030   88.8223    7.5943 N.3     1  UNL1       -0.2635
     34 C          60.2705   89.9407    8.3383 C.3     1  UNL1        0.0980
     35 C          61.2679   89.6344    9.4160 C.3     1  UNL1        0.1510
     36 C          61.9354   90.7528   10.1600 C.2     1  UNL1        0.2386
     37 O          61.2862   91.3339   11.3810 O.2     1  UNL1       -0.2736
     38 N          63.2521   91.2902    9.6830 N.am    1  UNL1       -0.2961
     39 H          63.6782   90.9088    8.8816 H       1  UNL1        0.1497
     40 C          63.9196   92.4086   10.4270 C.3     1  UNL1        0.1939
     41 C          65.3142   92.2336   10.9510 C.3     1  UNL1        0.4154
     42 F          66.7087   92.0585   11.4751 F       1  UNL1       -0.1682
     43 F          65.8492   93.0170    9.7892 F       1  UNL1       -0.1682
     44 F          64.7792   91.4501   12.1129 F       1  UNL1       -0.1682
     45 C          58.6057   89.1286    6.5166 C.3     1  UNL1        0.1377
     46 C          58.8334   90.2871    5.5912 C.ar    1  UNL1        0.1390
     47 C          57.8164   91.3195    5.2042 C.ar    1  UNL1        0.0375
     48 C          58.4725   92.2870    4.2642 C.ar    1  UNL1        0.0404
     49 C          59.8950   91.8524    4.0703 C.ar    1  UNL1        0.1464
     50 O          60.1181   90.6164    4.8904 O.2     1  UNL1       -0.4563
     51 C          60.9154   92.5341    3.2076 C.ar    1  UNL1        0.0537
     52 C          62.3170   92.0039    3.1423 C.ar    1  UNL1        0.0062
     53 C          63.3374   92.6856    2.2796 C.ar    1  UNL1        0.0208
     54 C          62.9560   93.8976    1.4824 C.ar    1  UNL1        0.0989
     55 N          61.5544   94.4279    1.5477 N.ar    1  UNL1       -0.2422
     56 C          60.5341   93.7461    2.4103 C.ar    1  UNL1        0.1019
@<TRIPOS>BOND
     1     6     7    2
     2     7     8   am
     3    10     8    1
     4    10    11    1
     5    11    12   ar
     6    12    13   ar
     7    13    14   ar
     8    14    15   ar
     9    15    16   ar
    10    16    17    1
    11    17    18    1
    12    18    19    1
    13    19    20    1
    14     7     5    1
    15     5    22    1
    16    22    23    1
    17    23    24   ar
    18    24    25   ar
    19    25    26   ar
    20    26    27   ar
    21    27    28   ar
    22     5     4    1
    23     4     1    1
    24     1     2    1
    25     1    29    1
    26    29    30    1
    27    30    31    1
    28    31    32    1
    29    32    33    1
    30    33    45    1
    31    45    46    1
    32    46    47   ar
    33    47    48   ar
    34    48    49   ar
    35    49    51    1
    36    51    52   ar
    37    52    53   ar
    38    53    54   ar
    39    54    55   ar
    40    55    56   ar
    41    49    50   ar
    42    33    34    1
    43    34    35    1
    44    35    36    1
    45    36    37    2
    46    36    38   am
    47    38    40    1
    48    40    41    1
    49    41    42    1
    50    41    43    1
    51    41    44    1
    52    19    10    1
    53    28    23   ar
    54    35    30    1
    55    16    11   ar
    56    50    46   ar
    57    56    51   ar
    58     8     9    1
    59    20    21    1
    60     2     3    1
    61    38    39    1
@<TRIPOS>MOLECULE
*****
 56 61 0 0 0
SMALL
GASTEIGER

@<TRIPOS>ATOM
      1 C          62.2079   86.5762   10.9088 C.3     1  UNL1        0.1269
      2 O          62.7406   85.5867    9.9153 O.3     1  UNL1       -0.3830
      3 H          62.0269   85.3110    9.3191 H       1  UNL1        0.2104
      4 C          63.1185   87.1596   11.9483 C.3     1  UNL1        0.0401
      5 C          63.5259   86.3376   13.1350 C.3     1  UNL1        0.0833
      6 O          61.5830   84.7904   13.8972 O.2     1  UNL1       -0.2751
      7 C          62.9588   84.9620   13.3248 C.2     1  UNL1        0.2226
      8 N          63.7676   83.7580   12.9423 N.am    1  UNL1       -0.2999
      9 H          64.6706   83.8706   12.5667 H       1  UNL1        0.1498
     10 C          63.2005   82.3824   13.1322 C.3     1  UNL1        0.1278
     11 C          63.1346   81.4319   11.9737 C.ar    1  UNL1        0.0320
     12 C          63.6356   81.8569   10.6253 C.ar    1  UNL1        0.0004
     13 C          63.5697   80.9064    9.4668 C.ar    1  UNL1       -0.0001
     14 C          63.0026   79.5308    9.6566 C.ar    1  UNL1        0.0031
     15 C          62.5015   79.1057   11.0050 C.ar    1  UNL1        0.0366
     16 C          62.5675   80.0562   12.1635 C.ar    1  UNL1        0.1362
     17 O          62.0664   79.6311   13.5120 O.3     1  UNL1       -0.4730
     18 C          62.1323   80.5816   14.6705 C.3     1  UNL1        0.2364
     19 C          62.6994   81.9573   14.4806 C.3     1  UNL1        0.1762
     20 O          62.7654   82.9078   15.6391 O.3     1  UNL1       -0.3788
     21 H          62.4036   82.4788   16.4303 H       1  UNL1        0.2106
     22 C          64.5005   86.8913   14.1318 C.3     1  UNL1        0.0355
     23 C          64.1541   88.1227   14.9151 C.ar    1  UNL1       -0.0217
     24 C          63.3801   88.0048   16.1945 C.ar    1  UNL1       -0.0043
     25 C          63.0337   89.2363   16.9778 C.ar    1  UNL1       -0.0003
     26 C          63.4614   90.5857   16.4816 C.ar    1  UNL1       -0.0000
     27 C          64.2355   90.7036   15.2022 C.ar    1  UNL1       -0.0003
     28 C          64.5818   89.4722   14.4189 C.ar    1  UNL1       -0.0043
     29 C          60.7647   86.9824   10.8628 C.3     1  UNL1        0.1021
     30 N          60.2335   87.7305    9.6761 N.3     1  UNL1       -0.2621
     31 C          59.4558   87.0046    8.6186 C.3     1  UNL1        0.0901
     32 C          58.9247   87.7528    7.4319 C.3     1  UNL1        0.0900
     33 N          59.1713   89.2268    7.3028 N.3     1  UNL1       -0.2635
     34 C          59.9489   89.9526    8.3603 C.3     1  UNL1        0.0980
     35 C          60.4801   89.2044    9.5470 C.3     1  UNL1        0.1510
     36 C          61.2577   89.9302   10.6045 C.2     1  UNL1        0.2386
     37 O          60.6185   90.2402   11.9256 O.2     1  UNL1       -0.2736
     38 N          62.6747   90.3461   10.3410 N.am    1  UNL1       -0.2961
     39 H          63.0942   90.1427    9.4739 H       1  UNL1        0.1497
     40 C          63.4523   91.0719   11.3985 C.3     1  UNL1        0.1939
     41 C          64.5303   92.0385   11.0063 C.3     1  UNL1        0.4154
     42 F          65.6083   93.0050   10.6141 F       1  UNL1       -0.1682
     43 F          63.7436   92.4216    9.7880 F       1  UNL1       -0.1682
     44 F          65.3170   91.6554   12.2246 F       1  UNL1       -0.1682
     45 C          58.6402   89.9749    6.1161 C.3     1  UNL1        0.1377
     46 C          59.5834   90.7032    5.2050 C.ar    1  UNL1        0.1390
     47 C          61.0799   90.6014    5.2214 C.ar    1  UNL1        0.0375
     48 C          61.6172   91.4964    4.1442 C.ar    1  UNL1        0.0404
     49 C          60.4527   92.1513    3.4621 C.ar    1  UNL1        0.1464
     50 O          59.1958   91.6611    4.1177 O.2     1  UNL1       -0.4563
     51 C          60.5314   93.1255    2.3241 C.ar    1  UNL1        0.0537
     52 C          61.7927   93.9020    2.0875 C.ar    1  UNL1        0.0062
     53 C          61.8714   94.8761    0.9495 C.ar    1  UNL1        0.0208
     54 C          60.6887   95.0736    0.0483 C.ar    1  UNL1        0.0989
     55 N          59.4273   94.2971    0.2850 N.ar    1  UNL1       -0.2422
     56 C          59.3487   93.3230    1.4229 C.ar    1  UNL1        0.1019
@<TRIPOS>BOND
     1     6     7    2
     2     7     8   am
     3    10     8    1
     4    10    11    1
     5    11    12   ar
     6    12    13   ar
     7    13    14   ar
     8    14    15   ar
     9    15    16   ar
    10    16    17    1
    11    17    18    1
    12    18    19    1
    13    19    20    1
    14     7     5    1
    15     5    22    1
    16    22    23    1
    17    23    24   ar
    18    24    25   ar
    19    25    26   ar
    20    26    27   ar
    21    27    28   ar
    22     5     4    1
    23     4     1    1
    24     1     2    1
    25     1    29    1
    26    29    30    1
    27    30    31    1
    28    31    32    1
    29    32    33    1
    30    33    45    1
    31    45    46    1
    32    46    47   ar
    33    47    48   ar
    34    48    49   ar
    35    49    51    1
    36    51    52   ar
    37    52    53   ar
    38    53    54   ar
    39    54    55   ar
    40    55    56   ar
    41    49    50   ar
    42    33    34    1
    43    34    35    1
    44    35    36    1
    45    36    37    2
    46    36    38   am
    47    38    40    1
    48    40    41    1
    49    41    42    1
    50    41    43    1
    51    41    44    1
    52    19    10    1
    53    28    23   ar
    54    35    30    1
    55    16    11   ar
    56    50    46   ar
    57    56    51   ar
    58     8     9    1
    59    20    21    1
    60     2     3    1
    61    38    39    1
@<TRIPOS>MOLECULE
*****
 56 61 0 0 0
SMALL
GASTEIGER

@<TRIPOS>ATOM
      1 C          62.4535   89.9524   12.8925 C.3     1  UNL1        0.1269
      2 O          61.6996   89.6373   14.1504 O.3     1  UNL1       -0.3830
      3 H          61.3995   88.7153   14.1251 H       1  UNL1        0.2104
      4 C          63.0259   91.3232   12.6845 C.3     1  UNL1        0.0401
      5 C          64.2980   91.7174   13.3746 C.3     1  UNL1        0.0833
      6 O          66.8035   92.2638   12.9572 O.2     1  UNL1       -0.2751
      7 C          65.3557   92.4715   12.6244 C.2     1  UNL1        0.2226
      8 N          64.9655   93.4333   11.5415 N.am    1  UNL1       -0.2999
      9 H          64.0153   93.5696   11.3231 H       1  UNL1        0.1498
     10 C          66.0231   94.1873   10.7913 C.3     1  UNL1        0.1278
     11 C          67.0464   93.4429    9.9860 C.ar    1  UNL1        0.0320
     12 C          67.0121   91.9443    9.9308 C.ar    1  UNL1        0.0004
     13 C          68.0354   91.1998    9.1254 C.ar    1  UNL1       -0.0001
     14 C          69.0930   91.9539    8.3752 C.ar    1  UNL1        0.0031
     15 C          69.1273   93.4525    8.4304 C.ar    1  UNL1        0.0366
     16 C          68.1040   94.1970    9.2358 C.ar    1  UNL1        0.1362
     17 O          68.1383   95.6956    9.2909 O.3     1  UNL1       -0.4730
     18 C          67.1150   96.4401   10.0963 C.3     1  UNL1        0.2364
     19 C          66.0574   95.6859   10.8465 C.3     1  UNL1        0.1762
     20 O          65.0341   96.4304   11.6519 O.3     1  UNL1       -0.3788
     21 H          65.1979   97.3838   11.5809 H       1  UNL1        0.2106
     22 C          64.5126   91.3575   14.8149 C.3     1  UNL1        0.0355
     23 C          64.2213   89.9654   15.2916 C.ar    1  UNL1       -0.0217
     24 C          63.3705   89.7520   16.5084 C.ar    1  UNL1       -0.0043
     25 C          63.0792   88.3598   16.9851 C.ar    1  UNL1       -0.0003
     26 C          63.6387   87.1812   16.2449 C.ar    1  UNL1       -0.0000
     27 C          64.4895   87.3947   15.0281 C.ar    1  UNL1       -0.0003
     28 C          64.7807   88.7867   14.5514 C.ar    1  UNL1       -0.0043
     29 C          62.6351   88.8966   11.8425 C.3     1  UNL1        0.1021
     30 N          61.7435   88.8771   10.6364 N.3     1  UNL1       -0.2621
     31 C          61.1183   90.1492   10.1453 C.3     1  UNL1        0.0901
     32 C          60.2267   90.1297    8.9392 C.3     1  UNL1        0.0900
     33 N          59.9602   88.8382    8.2243 N.3     1  UNL1       -0.2635
     34 C          60.5853   87.5663    8.7154 C.3     1  UNL1        0.0980
     35 C          61.4770   87.5857    9.9215 C.3     1  UNL1        0.1510
     36 C          62.1021   86.3137   10.4127 C.2     1  UNL1        0.2386
     37 O          63.0382   85.5471    9.5262 O.2     1  UNL1       -0.2736
     38 N          61.7910   85.8084   11.7903 N.am    1  UNL1       -0.2961
     39 H          61.1766   86.3115   12.3722 H       1  UNL1        0.1497
     40 C          62.4161   84.5364   12.2815 C.3     1  UNL1        0.1939
     41 C          63.0398   84.4848   13.6448 C.3     1  UNL1        0.4154
     42 F          63.6635   84.4333   15.0080 F       1  UNL1       -0.1682
     43 F          61.7153   84.1033   14.2363 F       1  UNL1       -0.1682
     44 F          64.3643   84.8663   13.0532 F       1  UNL1       -0.1682
     45 C          59.0686   88.8188    7.0182 C.3     1  UNL1        0.1377
     46 C          59.1240   89.9428    6.0264 C.ar    1  UNL1        0.1390
     47 C          57.9764   90.8209    5.6240 C.ar    1  UNL1        0.0375
     48 C          58.4798   91.8068    4.6117 C.ar    1  UNL1        0.0404
     49 C          59.9386   91.5379    4.3885 C.ar    1  UNL1        0.1464
     50 O          60.3366   90.3859    5.2628 O.2     1  UNL1       -0.4563
     51 C          60.8408   92.2891    3.4549 C.ar    1  UNL1        0.0537
     52 C          62.2764   91.8800    3.3080 C.ar    1  UNL1        0.0062
     53 C          63.1786   92.6313    2.3744 C.ar    1  UNL1        0.0208
     54 C          62.6452   93.7916    1.5877 C.ar    1  UNL1        0.0989
     55 N          61.2095   94.2007    1.7345 N.ar    1  UNL1       -0.2422
     56 C          60.3074   93.4495    2.6681 C.ar    1  UNL1        0.1019
@<TRIPOS>BOND
     1     6     7    2
     2     7     8   am
     3    10     8    1
     4    10    11    1
     5    11    12   ar
     6    12    13   ar
     7    13    14   ar
     8    14    15   ar
     9    15    16   ar
    10    16    17    1
    11    17    18    1
    12    18    19    1
    13    19    20    1
    14     7     5    1
    15     5    22    1
    16    22    23    1
    17    23    24   ar
    18    24    25   ar
    19    25    26   ar
    20    26    27   ar
    21    27    28   ar
    22     5     4    1
    23     4     1    1
    24     1     2    1
    25     1    29    1
    26    29    30    1
    27    30    31    1
    28    31    32    1
    29    32    33    1
    30    33    45    1
    31    45    46    1
    32    46    47   ar
    33    47    48   ar
    34    48    49   ar
    35    49    51    1
    36    51    52   ar
    37    52    53   ar
    38    53    54   ar
    39    54    55   ar
    40    55    56   ar
    41    49    50   ar
    42    33    34    1
    43    34    35    1
    44    35    36    1
    45    36    37    2
    46    36    38   am
    47    38    40    1
    48    40    41    1
    49    41    42    1
    50    41    43    1
    51    41    44    1
    52    19    10    1
    53    28    23   ar
    54    35    30    1
    55    16    11   ar
    56    50    46   ar
    57    56    51   ar
    58     8     9    1
    59    20    21    1
    60     2     3    1
    61    38    39    1
@<TRIPOS>MOLECULE
*****
 56 61 0 0 0
SMALL
GASTEIGER

@<TRIPOS>ATOM
      1 C          62.5624   87.2018   12.3861 C.3     1  UNL1        0.1269
      2 O          62.1798   85.7674   12.6005 O.3     1  UNL1       -0.3830
      3 H          62.2427   85.2869   11.7601 H       1  UNL1        0.2104
      4 C          62.5472   88.1623   13.5381 C.3     1  UNL1        0.0401
      5 C          63.8369   88.6002   14.1666 C.3     1  UNL1        0.0833
      6 O          63.5954   91.0778   14.9105 O.2     1  UNL1       -0.2751
      7 C          64.2693   90.0334   14.0708 C.2     1  UNL1        0.2226
      8 N          65.3756   90.4221   13.1354 N.am    1  UNL1       -0.2999
      9 H          65.8179   89.7366   12.5843 H       1  UNL1        0.1498
     10 C          65.8080   91.8552   13.0397 C.3     1  UNL1        0.1278
     11 C          66.6948   92.4432   14.0969 C.ar    1  UNL1        0.0320
     12 C          67.1492   91.5982   15.2499 C.ar    1  UNL1        0.0004
     13 C          68.0361   92.1863   16.3071 C.ar    1  UNL1       -0.0001
     14 C          68.4685   93.6194   16.2113 C.ar    1  UNL1        0.0031
     15 C          68.0141   94.4644   15.0583 C.ar    1  UNL1        0.0366
     16 C          67.1272   93.8763   14.0011 C.ar    1  UNL1        0.1362
     17 O          66.6728   94.7214   12.8481 O.3     1  UNL1       -0.4730
     18 C          65.7860   94.1334   11.7909 C.3     1  UNL1        0.2364
     19 C          65.3536   92.7002   11.8867 C.3     1  UNL1        0.1762
     20 O          64.4667   92.1121   10.8295 O.3     1  UNL1       -0.3788
     21 H          64.2678   92.7873   10.1620 H       1  UNL1        0.2106
     22 C          64.6942   87.6049   14.8908 C.3     1  UNL1        0.0355
     23 C          64.2263   86.1890   15.0521 C.ar    1  UNL1       -0.0217
     24 C          64.9185   85.0816   14.3141 C.ar    1  UNL1       -0.0043
     25 C          64.4506   83.6656   14.4755 C.ar    1  UNL1       -0.0003
     26 C          63.2906   83.3570   15.3749 C.ar    1  UNL1       -0.0000
     27 C          62.5984   84.4643   16.1130 C.ar    1  UNL1       -0.0003
     28 C          63.0663   85.8803   15.9516 C.ar    1  UNL1       -0.0043
     29 C          62.9601   87.6758   11.0196 C.3     1  UNL1        0.1021
     30 N          61.9070   87.9890    9.9984 N.3     1  UNL1       -0.2621
     31 C          61.1247   89.2652   10.0949 C.3     1  UNL1        0.0901
     32 C          60.0715   89.5783    9.0737 C.3     1  UNL1        0.0900
     33 N          59.8007   88.6152    7.9560 N.3     1  UNL1       -0.2635
     34 C          60.5830   87.3391    7.8595 C.3     1  UNL1        0.0980
     35 C          61.6362   87.0259    8.8807 C.3     1  UNL1        0.1510
     36 C          62.4185   85.7498    8.7843 C.2     1  UNL1        0.2386
     37 O          62.8178   85.2145    7.4411 O.2     1  UNL1       -0.2736
     38 N          62.8015   85.0088   10.0310 N.am    1  UNL1       -0.2961
     39 H          62.5395   85.3601   10.9126 H       1  UNL1        0.1497
     40 C          63.5839   83.7326    9.9346 C.3     1  UNL1        0.1939
     41 C          63.5929   82.7697   11.0847 C.3     1  UNL1        0.4154
     42 F          63.6020   81.8068   12.2348 F       1  UNL1       -0.1682
     43 F          62.0990   82.8666   11.1777 F       1  UNL1       -0.1682
     44 F          65.0869   82.6728   10.9918 F       1  UNL1       -0.1682
     45 C          58.7476   88.9284    6.9348 C.3     1  UNL1        0.1377
     46 C          58.9672   90.0347    5.9459 C.ar    1  UNL1        0.1390
     47 C          57.9422   91.0349    5.4998 C.ar    1  UNL1        0.0375
     48 C          58.5918   91.9534    4.5077 C.ar    1  UNL1        0.0404
     49 C          60.0184   91.5209    4.3407 C.ar    1  UNL1        0.1464
     50 O          60.2504   90.3351    5.2295 O.2     1  UNL1       -0.4563
     51 C          61.0346   92.1617    3.4425 C.ar    1  UNL1        0.0537
     52 C          62.4394   91.6372    3.4050 C.ar    1  UNL1        0.0062
     53 C          63.4556   92.2780    2.5068 C.ar    1  UNL1        0.0208
     54 C          63.0669   93.4433    1.6461 C.ar    1  UNL1        0.0989
     55 N          61.6620   93.9679    1.6835 N.ar    1  UNL1       -0.2422
     56 C          60.6460   93.3271    2.5817 C.ar    1  UNL1        0.1019
@<TRIPOS>BOND
     1     6     7    2
     2     7     8   am
     3    10     8    1
     4    10    11    1
     5    11    12   ar
     6    12    13   ar
     7    13    14   ar
     8    14    15   ar
     9    15    16   ar
    10    16    17    1
    11    17    18    1
    12    18    19    1
    13    19    20    1
    14     7     5    1
    15     5    22    1
    16    22    23    1
    17    23    24   ar
    18    24    25   ar
    19    25    26   ar
    20    26    27   ar
    21    27    28   ar
    22     5     4    1
    23     4     1    1
    24     1     2    1
    25     1    29    1
    26    29    30    1
    27    30    31    1
    28    31    32    1
    29    32    33    1
    30    33    45    1
    31    45    46    1
    32    46    47   ar
    33    47    48   ar
    34    48    49   ar
    35    49    51    1
    36    51    52   ar
    37    52    53   ar
    38    53    54   ar
    39    54    55   ar
    40    55    56   ar
    41    49    50   ar
    42    33    34    1
    43    34    35    1
    44    35    36    1
    45    36    37    2
    46    36    38   am
    47    38    40    1
    48    40    41    1
    49    41    42    1
    50    41    43    1
    51    41    44    1
    52    19    10    1
    53    28    23   ar
    54    35    30    1
    55    16    11   ar
    56    50    46   ar
    57    56    51   ar
    58     8     9    1
    59    20    21    1
    60     2     3    1
    61    38    39    1
