@<TRIPOS>MOLECULE
*****
 33 36 0 0 0
SMALL
GASTEIGER

@<TRIPOS>ATOM
      1 C          63.7425   90.6959   11.7269 C.ar    1  UNL1        0.1591
      2 C          64.2368   91.2525   13.0291 C.ar    1  UNL1        0.0832
      3 C          65.1273   92.4209   12.7257 C.ar    1  UNL1        0.2278
      4 N          65.1834   92.5863   11.2360 N.ar    1  UNL1       -0.1958
      5 N          64.3276   91.5203   10.6186 N.ar    1  UNL1       -0.1578
      6 C          65.9591   93.6339   10.4938 C.ar    1  UNL1        0.1132
      7 C          65.4799   95.0552   10.4834 C.ar    1  UNL1        0.0215
      8 C          66.2555   96.1028    9.7412 C.ar    1  UNL1        0.0017
      9 C          67.5105   95.7291    9.0095 C.ar    1  UNL1        0.0024
     10 C          67.9897   94.3077    9.0199 C.ar    1  UNL1        0.0312
     11 C          67.2140   93.2602    9.7621 C.ar    1  UNL1        0.1578
     12 F          67.6933   91.8388    9.7724 F       1  UNL1       -0.2026
     13 N          61.9202   89.4380   10.3679 N.am    1  UNL1       -0.2971
     14 C          62.8244   89.5213   11.5618 C.2     1  UNL1        0.2657
     15 O          62.8105   88.4298   12.5908 O.2     1  UNL1       -0.2684
     16 H          61.9294   90.1543    9.6926 H       1  UNL1        0.1500
     17 C          61.0021   88.2633   10.2029 C.3     1  UNL1        0.0996
     18 C          59.0961   87.5184    8.0091 C.3     1  UNL1        0.0308
     19 C          60.4015   86.7925    8.1471 C.ar    1  UNL1       -0.0243
     20 C          60.7539   85.6942    7.1883 C.ar    1  UNL1       -0.0045
     21 C          62.0593   84.9683    7.3262 C.ar    1  UNL1       -0.0003
     22 C          63.0123   85.3407    8.4231 C.ar    1  UNL1       -0.0003
     23 C          62.6599   86.4390    9.3819 C.ar    1  UNL1       -0.0030
     24 C          61.3545   87.1649    9.2439 C.ar    1  UNL1       -0.0081
     25 C          59.7317   88.1870   10.9967 C.3     1  UNL1        0.0658
     26 C          59.3767   89.2879   11.9516 C.2     1  UNL1        0.0523
     27 O          59.3582   90.7120   11.4810 O.co2   1  UNL1       -0.5491
     28 O          59.0402   88.9647   13.3772 O.co2   1  UNL1       -0.5491
     29 O          65.8370   93.2739   13.7350 O.3     1  UNL1       -0.4602
     30 C          66.2168   92.6999   15.0677 C.3     1  UNL1        0.2070
     31 C          67.5978   92.9167   15.6116 C.3     1  UNL1        0.0438
     32 C          68.6853   93.8463   16.0625 C.3     1  UNL1        0.0038
     33 C          68.9023   92.3626   16.1029 C.3     1  UNL1        0.0038
@<TRIPOS>UNITY_ATOM_ATTR
27 1
charge -1
@<TRIPOS>BOND
     1    18    19    1
     2    19    20   ar
     3    20    21   ar
     4    21    22   ar
     5    22    23   ar
     6    23    24   ar
     7    24    17    1
     8    17    25    1
     9    25    26    1
    10    26    27   ar
    11    26    28   ar
    12    17    13    1
    13    13    14   am
    14    14    15    2
    15    14     1    1
    16     1     2   ar
    17     2     3   ar
    18     3    29    1
    19    29    30    1
    20    30    31    1
    21    31    32    1
    22    32    33    1
    23     3     4   ar
    24     4     6    1
    25     6     7   ar
    26     7     8   ar
    27     8     9   ar
    28     9    10   ar
    29    10    11   ar
    30    11    12    1
    31     4     5   ar
    32    24    19   ar
    33     5     1   ar
    34    33    31    1
    35    11     6   ar
    36    13    16    1
@<TRIPOS>MOLECULE
*****
 33 36 0 0 0
SMALL
GASTEIGER

@<TRIPOS>ATOM
      1 C          63.6860   90.7611   11.8223 C.ar    1  UNL1        0.1591
      2 C          64.2341   91.3164   13.1034 C.ar    1  UNL1        0.0832
      3 C          65.1478   92.4558   12.7614 C.ar    1  UNL1        0.2278
      4 N          65.1644   92.6047   11.2689 N.ar    1  UNL1       -0.1958
      5 N          64.2610   91.5573   10.6885 N.ar    1  UNL1       -0.1578
      6 C          65.9471   93.6222   10.4930 C.ar    1  UNL1        0.1132
      7 C          65.4838   95.0481   10.4459 C.ar    1  UNL1        0.0215
      8 C          66.2664   96.0657    9.6701 C.ar    1  UNL1        0.0017
      9 C          67.5122   95.6574    8.9412 C.ar    1  UNL1        0.0024
     10 C          67.9754   94.2315    8.9883 C.ar    1  UNL1        0.0312
     11 C          67.1928   93.2139    9.7642 C.ar    1  UNL1        0.1578
     12 F          67.6561   91.7880    9.8112 F       1  UNL1       -0.2026
     13 N          62.8158   88.6909   10.5158 N.am    1  UNL1       -0.2971
     14 C          62.7307   89.6115   11.6970 C.2     1  UNL1        0.2657
     15 O          61.6902   89.3824   12.7529 O.2     1  UNL1       -0.2684
     16 H          63.4987   88.8413    9.8227 H       1  UNL1        0.1500
     17 C          61.8605   87.5413   10.3905 C.3     1  UNL1        0.0996
     18 C          62.8783   85.7067    8.2461 C.3     1  UNL1        0.0308
     19 C          62.8165   85.2357    9.6689 C.ar    1  UNL1       -0.0243
     20 C          63.2635   83.8475   10.0195 C.ar    1  UNL1       -0.0045
     21 C          63.2016   83.3766   11.4423 C.ar    1  UNL1       -0.0003
     22 C          62.6927   84.2938   12.5145 C.ar    1  UNL1       -0.0003
     23 C          62.2457   85.6820   12.1639 C.ar    1  UNL1       -0.0030
     24 C          62.3076   86.1530   10.7411 C.ar    1  UNL1       -0.0081
     25 C          60.4582   87.7799    9.9146 C.3     1  UNL1        0.0658
     26 C          60.1094   89.0640    9.2222 C.2     1  UNL1        0.0523
     27 O          60.0784   90.3487    9.9957 O.co2   1  UNL1       -0.5491
     28 O          59.7916   89.0633    7.7562 O.co2   1  UNL1       -0.5491
     29 O          65.9108   93.2984   13.7401 O.3     1  UNL1       -0.4602
     30 C          66.2606   92.7478   15.0908 C.3     1  UNL1        0.2070
     31 C          67.6461   92.9256   15.6374 C.3     1  UNL1        0.0438
     32 C          68.8893   92.3422   16.2407 C.3     1  UNL1        0.0038
     33 C          68.8026   93.8169   15.9807 C.3     1  UNL1        0.0038
@<TRIPOS>UNITY_ATOM_ATTR
27 1
charge -1
@<TRIPOS>BOND
     1    18    19    1
     2    19    20   ar
     3    20    21   ar
     4    21    22   ar
     5    22    23   ar
     6    23    24   ar
     7    24    17    1
     8    17    25    1
     9    25    26    1
    10    26    27   ar
    11    26    28   ar
    12    17    13    1
    13    13    14   am
    14    14    15    2
    15    14     1    1
    16     1     2   ar
    17     2     3   ar
    18     3    29    1
    19    29    30    1
    20    30    31    1
    21    31    32    1
    22    32    33    1
    23     3     4   ar
    24     4     6    1
    25     6     7   ar
    26     7     8   ar
    27     8     9   ar
    28     9    10   ar
    29    10    11   ar
    30    11    12    1
    31     4     5   ar
    32    24    19   ar
    33     5     1   ar
    34    33    31    1
    35    11     6   ar
    36    13    16    1
@<TRIPOS>MOLECULE
*****
 33 36 0 0 0
SMALL
GASTEIGER

@<TRIPOS>ATOM
      1 C          63.6008   90.1018   12.2531 C.ar    1  UNL1        0.1591
      2 C          63.7893   91.3326   11.4168 C.ar    1  UNL1        0.0832
      3 C          64.8747   92.1569   12.0431 C.ar    1  UNL1        0.2278
      4 N          65.3571   91.4355   13.2665 N.ar    1  UNL1       -0.1958
      5 N          64.5698   90.1653   13.3963 N.ar    1  UNL1       -0.1578
      6 C          66.4372   91.9022   14.1969 C.ar    1  UNL1        0.1132
      7 C          67.8580   91.9731   13.7210 C.ar    1  UNL1        0.0215
      8 C          68.9381   92.4398   14.6513 C.ar    1  UNL1        0.0017
      9 C          68.5974   92.8356   16.0575 C.ar    1  UNL1        0.0024
     10 C          67.1767   92.7647   16.5333 C.ar    1  UNL1        0.0312
     11 C          66.0966   92.2979   15.6030 C.ar    1  UNL1        0.1578
     12 F          64.6759   92.2270   16.0789 F       1  UNL1       -0.2026
     13 N          63.0788   87.7091   11.3855 N.am    1  UNL1       -0.2971
     14 C          62.6162   89.0007   11.9920 C.2     1  UNL1        0.2657
     15 O          61.1689   89.1912   12.3374 O.2     1  UNL1       -0.2684
     16 H          64.0286   87.5841   11.1588 H       1  UNL1        0.1500
     17 C          62.0941   86.6080   11.1245 C.3     1  UNL1        0.0996
     18 C          62.9807   85.1743    8.6428 C.3     1  UNL1        0.0308
     19 C          61.6826   85.9260    8.6515 C.ar    1  UNL1       -0.0243
     20 C          60.8278   85.9608    7.4194 C.ar    1  UNL1       -0.0045
     21 C          59.5298   86.7125    7.4281 C.ar    1  UNL1       -0.0003
     22 C          59.0865   87.4293    8.6689 C.ar    1  UNL1       -0.0003
     23 C          59.9413   87.3945    9.9010 C.ar    1  UNL1       -0.0030
     24 C          61.2394   86.6428    9.8923 C.ar    1  UNL1       -0.0081
     25 C          61.9643   85.4722   12.0955 C.3     1  UNL1        0.0658
     26 C          63.1356   85.0722   12.9429 C.2     1  UNL1        0.0523
     27 O          63.7570   83.7177   12.7723 O.co2   1  UNL1       -0.5491
     28 O          63.6856   86.0269   13.9609 O.co2   1  UNL1       -0.5491
     29 O          65.3877   93.4718   11.5352 O.3     1  UNL1       -0.4602
     30 C          65.9804   93.5650   10.1604 C.3     1  UNL1        0.2070
     31 C          67.2759   92.8739    9.8537 C.3     1  UNL1        0.0438
     32 C          68.4515   92.6607    8.9469 C.3     1  UNL1        0.0038
     33 C          68.3441   91.8902   10.2293 C.3     1  UNL1        0.0038
@<TRIPOS>UNITY_ATOM_ATTR
27 1
charge -1
@<TRIPOS>BOND
     1    18    19    1
     2    19    20   ar
     3    20    21   ar
     4    21    22   ar
     5    22    23   ar
     6    23    24   ar
     7    24    17    1
     8    17    25    1
     9    25    26    1
    10    26    27   ar
    11    26    28   ar
    12    17    13    1
    13    13    14   am
    14    14    15    2
    15    14     1    1
    16     1     2   ar
    17     2     3   ar
    18     3    29    1
    19    29    30    1
    20    30    31    1
    21    31    32    1
    22    32    33    1
    23     3     4   ar
    24     4     6    1
    25     6     7   ar
    26     7     8   ar
    27     8     9   ar
    28     9    10   ar
    29    10    11   ar
    30    11    12    1
    31     4     5   ar
    32    24    19   ar
    33     5     1   ar
    34    33    31    1
    35    11     6   ar
    36    13    16    1
@<TRIPOS>MOLECULE
*****
 33 36 0 0 0
SMALL
GASTEIGER

@<TRIPOS>ATOM
      1 C          63.4455   90.0175   11.8241 C.ar    1  UNL1        0.1591
      2 C          63.3445   88.7251   12.5786 C.ar    1  UNL1        0.0832
      3 C          62.4853   87.7889   11.7816 C.ar    1  UNL1        0.2278
      4 N          62.0552   88.5028   10.5344 N.ar    1  UNL1       -0.1958
      5 N          62.6486   89.8801   10.5607 N.ar    1  UNL1       -0.1578
      6 C          61.1845   87.9384    9.4511 C.ar    1  UNL1        0.1132
      7 C          61.4422   86.5576    8.9249 C.ar    1  UNL1        0.0215
      8 C          60.5716   85.9932    7.8417 C.ar    1  UNL1        0.0017
      9 C          59.4433   86.8096    7.2847 C.ar    1  UNL1        0.0024
     10 C          59.1856   88.1904    7.8109 C.ar    1  UNL1        0.0312
     11 C          60.0562   88.7548    8.8942 C.ar    1  UNL1        0.1578
     12 F          59.7984   90.1356    9.4204 F       1  UNL1       -0.2026
     13 N          65.2253   91.8472   11.3397 N.am    1  UNL1       -0.2971
     14 C          64.2092   91.2338   12.2569 C.2     1  UNL1        0.2657
     15 O          63.9569   91.8368   13.6071 O.2     1  UNL1       -0.2684
     16 H          65.3909   91.4515   10.4535 H       1  UNL1        0.1500
     17 C          65.9890   93.0635   11.7725 C.3     1  UNL1        0.0996
     18 C          68.0073   92.5315    9.6176 C.3     1  UNL1        0.0308
     19 C          67.3311   93.8680    9.6985 C.ar    1  UNL1       -0.0243
     20 C          67.6641   94.9384    8.7019 C.ar    1  UNL1       -0.0045
     21 C          66.9879   96.2750    8.7827 C.ar    1  UNL1       -0.0003
     22 C          65.9788   96.5410    9.8601 C.ar    1  UNL1       -0.0003
     23 C          65.6458   95.4705   10.8567 C.ar    1  UNL1       -0.0030
     24 C          66.3220   94.1340   10.7759 C.ar    1  UNL1       -0.0081
     25 C          66.4197   93.2093   13.2019 C.3     1  UNL1        0.0658
     26 C          67.4273   92.2616   13.7820 C.2     1  UNL1        0.0523
     27 O          68.6077   91.8289   12.9639 O.co2   1  UNL1       -0.5491
     28 O          67.2545   91.7467   15.1803 O.co2   1  UNL1       -0.5491
     29 O          62.1202   86.3853   12.1645 O.3     1  UNL1       -0.4602
     30 C          63.1965   85.3937   12.4937 C.3     1  UNL1        0.2070
     31 C          63.2903   84.1070   11.7285 C.3     1  UNL1        0.0438
     32 C          63.8086   83.3274   10.5565 C.3     1  UNL1        0.0038
     33 C          62.9345   82.6579   11.5751 C.3     1  UNL1        0.0038
@<TRIPOS>UNITY_ATOM_ATTR
27 1
charge -1
@<TRIPOS>BOND
     1    18    19    1
     2    19    20   ar
     3    20    21   ar
     4    21    22   ar
     5    22    23   ar
     6    23    24   ar
     7    24    17    1
     8    17    25    1
     9    25    26    1
    10    26    27   ar
    11    26    28   ar
    12    17    13    1
    13    13    14   am
    14    14    15    2
    15    14     1    1
    16     1     2   ar
    17     2     3   ar
    18     3    29    1
    19    29    30    1
    20    30    31    1
    21    31    32    1
    22    32    33    1
    23     3     4   ar
    24     4     6    1
    25     6     7   ar
    26     7     8   ar
    27     8     9   ar
    28     9    10   ar
    29    10    11   ar
    30    11    12    1
    31     4     5   ar
    32    24    19   ar
    33     5     1   ar
    34    33    31    1
    35    11     6   ar
    36    13    16    1
@<TRIPOS>MOLECULE
*****
 33 36 0 0 0
SMALL
GASTEIGER

@<TRIPOS>ATOM
      1 C          63.3977   89.8052   12.0879 C.ar    1  UNL1        0.1591
      2 C          63.3327   88.4448   12.7164 C.ar    1  UNL1        0.0832
      3 C          62.4992   87.5650   11.8325 C.ar    1  UNL1        0.2278
      4 N          62.0491   88.3817   10.6575 N.ar    1  UNL1       -0.1958
      5 N          62.6044   89.7662   10.8154 N.ar    1  UNL1       -0.1578
      6 C          61.1939   87.8987    9.5238 C.ar    1  UNL1        0.1132
      7 C          61.4127   86.5304    8.9494 C.ar    1  UNL1        0.0215
      8 C          60.5576   86.0474    7.8157 C.ar    1  UNL1        0.0017
      9 C          59.4836   86.9327    7.2564 C.ar    1  UNL1        0.0024
     10 C          59.2648   88.3010    7.8308 C.ar    1  UNL1        0.0312
     11 C          60.1200   88.7839    8.9645 C.ar    1  UNL1        0.1578
     12 F          59.9011   90.1522    9.5389 F       1  UNL1       -0.2026
     13 N          65.2263   91.6337   11.8382 N.am    1  UNL1       -0.2971
     14 C          64.1278   90.9955   12.6356 C.2     1  UNL1        0.2657
     15 O          63.7592   91.5477   13.9807 O.2     1  UNL1       -0.2684
     16 H          65.4682   91.2713   10.9554 H       1  UNL1        0.1500
     17 C          65.9564   92.8241   12.3859 C.3     1  UNL1        0.0996
     18 C          68.6923   91.6067   12.2046 C.3     1  UNL1        0.0308
     19 C          68.1667   92.0764   13.5286 C.ar    1  UNL1       -0.0243
     20 C          69.0089   91.9373   14.7620 C.ar    1  UNL1       -0.0045
     21 C          68.4833   92.4070   16.0860 C.ar    1  UNL1       -0.0003
     22 C          67.1154   93.0157   16.1767 C.ar    1  UNL1       -0.0003
     23 C          66.2731   93.1547   14.9434 C.ar    1  UNL1       -0.0030
     24 C          66.7987   92.6850   13.6193 C.ar    1  UNL1       -0.0081
     25 C          65.8442   94.1535   11.7003 C.3     1  UNL1        0.0658
     26 C          66.6508   94.4316   10.4666 C.2     1  UNL1        0.0523
     27 O          67.0470   93.3044    9.5598 O.co2   1  UNL1       -0.5491
     28 O          67.0610   95.8369   10.1397 O.co2   1  UNL1       -0.5491
     29 O          62.1731   86.1220   12.0800 O.3     1  UNL1       -0.4602
     30 C          63.2613   85.1614   12.4583 C.3     1  UNL1        0.2070
     31 C          63.4497   83.8955   11.6759 C.3     1  UNL1        0.0438
     32 C          64.1058   83.1476   10.5534 C.3     1  UNL1        0.0038
     33 C          63.1198   82.4508   11.4435 C.3     1  UNL1        0.0038
@<TRIPOS>UNITY_ATOM_ATTR
27 1
charge -1
@<TRIPOS>BOND
     1    18    19    1
     2    19    20   ar
     3    20    21   ar
     4    21    22   ar
     5    22    23   ar
     6    23    24   ar
     7    24    17    1
     8    17    25    1
     9    25    26    1
    10    26    27   ar
    11    26    28   ar
    12    17    13    1
    13    13    14   am
    14    14    15    2
    15    14     1    1
    16     1     2   ar
    17     2     3   ar
    18     3    29    1
    19    29    30    1
    20    30    31    1
    21    31    32    1
    22    32    33    1
    23     3     4   ar
    24     4     6    1
    25     6     7   ar
    26     7     8   ar
    27     8     9   ar
    28     9    10   ar
    29    10    11   ar
    30    11    12    1
    31     4     5   ar
    32    24    19   ar
    33     5     1   ar
    34    33    31    1
    35    11     6   ar
    36    13    16    1
@<TRIPOS>MOLECULE
*****
 33 36 0 0 0
SMALL
GASTEIGER

@<TRIPOS>ATOM
      1 C          63.8842   90.8451   11.3892 C.ar    1  UNL1        0.1591
      2 C          64.2671   92.1642   10.7863 C.ar    1  UNL1        0.0832
      3 C          65.2572   92.8221   11.7011 C.ar    1  UNL1        0.2278
      4 N          65.4862   91.9096   12.8695 N.ar    1  UNL1       -0.1958
      5 N          64.6377   90.6878   12.6767 N.ar    1  UNL1       -0.1578
      6 C          66.4028   92.1728   14.0273 C.ar    1  UNL1        0.1132
      7 C          65.8353   92.5673   15.3585 C.ar    1  UNL1        0.0215
      8 C          66.7518   92.8304   16.5163 C.ar    1  UNL1        0.0017
      9 C          68.2360   92.6990   16.3429 C.ar    1  UNL1        0.0024
     10 C          68.8035   92.3045   15.0117 C.ar    1  UNL1        0.0312
     11 C          67.8869   92.0414   13.8539 C.ar    1  UNL1        0.1578
     12 F          68.4545   91.6469   12.5226 F       1  UNL1       -0.2026
     13 N          62.5325   88.6353   11.5874 N.am    1  UNL1       -0.2971
     14 C          62.9176   89.8569   10.8069 C.2     1  UNL1        0.2657
     15 O          62.3361   90.0904    9.4440 O.2     1  UNL1       -0.2684
     16 H          62.9141   88.4821   12.4819 H       1  UNL1        0.1500
     17 C          61.5658   87.6471   11.0051 C.3     1  UNL1        0.0996
     18 C          62.5595   85.2605   12.5273 C.3     1  UNL1        0.0308
     19 C          62.5725   85.2520   11.0274 C.ar    1  UNL1       -0.0243
     20 C          63.0824   84.0503   10.2886 C.ar    1  UNL1       -0.0045
     21 C          63.0954   84.0418    8.7887 C.ar    1  UNL1       -0.0003
     22 C          62.5986   85.2351    8.0276 C.ar    1  UNL1       -0.0003
     23 C          62.0887   86.4368    8.7664 C.ar    1  UNL1       -0.0030
     24 C          62.0757   86.4453   10.2663 C.ar    1  UNL1       -0.0081
     25 C          60.0894   87.8606   11.1616 C.3     1  UNL1        0.0658
     26 C          59.5804   89.0140   11.9744 C.2     1  UNL1        0.0523
     27 O          59.7454   90.4172   11.4708 O.co2   1  UNL1       -0.5491
     28 O          58.9064   88.7640   13.2910 O.co2   1  UNL1       -0.5491
     29 O          65.9046   94.1579   11.4855 O.3     1  UNL1       -0.4602
     30 C          66.7652   94.3881   10.2787 C.3     1  UNL1        0.2070
     31 C          67.6710   93.2993    9.7847 C.3     1  UNL1        0.0438
     32 C          67.8796   91.8758    9.3603 C.3     1  UNL1        0.0038
     33 C          69.0312   92.8369    9.3535 C.3     1  UNL1        0.0038
@<TRIPOS>UNITY_ATOM_ATTR
27 1
charge -1
@<TRIPOS>BOND
     1    18    19    1
     2    19    20   ar
     3    20    21   ar
     4    21    22   ar
     5    22    23   ar
     6    23    24   ar
     7    24    17    1
     8    17    25    1
     9    25    26    1
    10    26    27   ar
    11    26    28   ar
    12    17    13    1
    13    13    14   am
    14    14    15    2
    15    14     1    1
    16     1     2   ar
    17     2     3   ar
    18     3    29    1
    19    29    30    1
    20    30    31    1
    21    31    32    1
    22    32    33    1
    23     3     4   ar
    24     4     6    1
    25     6     7   ar
    26     7     8   ar
    27     8     9   ar
    28     9    10   ar
    29    10    11   ar
    30    11    12    1
    31     4     5   ar
    32    24    19   ar
    33     5     1   ar
    34    33    31    1
    35    11     6   ar
    36    13    16    1
@<TRIPOS>MOLECULE
*****
 33 36 0 0 0
SMALL
GASTEIGER

@<TRIPOS>ATOM
      1 C          63.6891   90.7928   11.9801 C.ar    1  UNL1        0.1591
      2 C          64.2680   91.3648   13.2402 C.ar    1  UNL1        0.0832
      3 C          65.1990   92.4775   12.8592 C.ar    1  UNL1        0.2278
      4 N          65.1956   92.5932   11.3637 N.ar    1  UNL1       -0.1958
      5 N          64.2624   91.5520   10.8204 N.ar    1  UNL1       -0.1578
      6 C          65.9864   93.5773   10.5537 C.ar    1  UNL1        0.1132
      7 C          65.5482   95.0098   10.4776 C.ar    1  UNL1        0.0215
      8 C          66.3390   95.9939    9.6676 C.ar    1  UNL1        0.0017
      9 C          67.5680   95.5455    8.9337 C.ar    1  UNL1        0.0024
     10 C          68.0061   94.1130    9.0099 C.ar    1  UNL1        0.0312
     11 C          67.2153   93.1289    9.8199 C.ar    1  UNL1        0.1578
     12 F          67.6535   91.6963    9.8960 F       1  UNL1       -0.2026
     13 N          62.8455   88.6304   10.8130 N.am    1  UNL1       -0.2971
     14 C          62.7091   89.6604   11.8948 C.2     1  UNL1        0.2657
     15 O          61.5925   89.5582   12.8913 O.2     1  UNL1       -0.2684
     16 H          63.5784   88.6975   10.1590 H       1  UNL1        0.1500
     17 C          61.8655   87.4980   10.7277 C.3     1  UNL1        0.0996
     18 C          60.1454   89.7794    9.8129 C.3     1  UNL1        0.0308
     19 C          60.1406   88.4854    9.0543 C.ar    1  UNL1       -0.0243
     20 C          59.2758   88.3321    7.8384 C.ar    1  UNL1       -0.0045
     21 C          59.2710   87.0381    7.0798 C.ar    1  UNL1       -0.0003
     22 C          60.1310   85.8974    7.5371 C.ar    1  UNL1       -0.0003
     23 C          60.9958   86.0507    8.7530 C.ar    1  UNL1       -0.0030
     24 C          61.0006   87.3447    9.5117 C.ar    1  UNL1       -0.0081
     25 C          61.7503   86.5190   11.8582 C.3     1  UNL1        0.0658
     26 C          62.9878   85.9717   12.5054 C.2     1  UNL1        0.0523
     27 O          63.7504   86.8063   13.4912 O.co2   1  UNL1       -0.5491
     28 O          63.4628   84.5897   12.1668 O.co2   1  UNL1       -0.5491
     29 O          65.9939   93.3255   13.8074 O.3     1  UNL1       -0.4602
     30 C          66.3400   92.8037   15.1704 C.3     1  UNL1        0.2070
     31 C          67.7314   92.9688   15.7057 C.3     1  UNL1        0.0438
     32 C          68.9965   92.3677   16.2426 C.3     1  UNL1        0.0038
     33 C          68.8765   93.8557   16.0959 C.3     1  UNL1        0.0038
@<TRIPOS>UNITY_ATOM_ATTR
27 1
charge -1
@<TRIPOS>BOND
     1    18    19    1
     2    19    20   ar
     3    20    21   ar
     4    21    22   ar
     5    22    23   ar
     6    23    24   ar
     7    24    17    1
     8    17    25    1
     9    25    26    1
    10    26    27   ar
    11    26    28   ar
    12    17    13    1
    13    13    14   am
    14    14    15    2
    15    14     1    1
    16     1     2   ar
    17     2     3   ar
    18     3    29    1
    19    29    30    1
    20    30    31    1
    21    31    32    1
    22    32    33    1
    23     3     4   ar
    24     4     6    1
    25     6     7   ar
    26     7     8   ar
    27     8     9   ar
    28     9    10   ar
    29    10    11   ar
    30    11    12    1
    31     4     5   ar
    32    24    19   ar
    33     5     1   ar
    34    33    31    1
    35    11     6   ar
    36    13    16    1
@<TRIPOS>MOLECULE
*****
 33 36 0 0 0
SMALL
GASTEIGER

@<TRIPOS>ATOM
      1 C          63.6538   90.2920   12.2151 C.ar    1  UNL1        0.1591
      2 C          63.8687   91.4917   11.3407 C.ar    1  UNL1        0.0832
      3 C          64.9744   92.3097   11.9395 C.ar    1  UNL1        0.2278
      4 N          65.4428   91.6155   13.1839 N.ar    1  UNL1       -0.1958
      5 N          64.6267   90.3685   13.3542 N.ar    1  UNL1       -0.1578
      6 C          66.5356   92.0856   14.0977 C.ar    1  UNL1        0.1132
      7 C          66.1959   92.6438   15.4478 C.ar    1  UNL1        0.0215
      8 C          67.2885   93.1140   16.3616 C.ar    1  UNL1        0.0017
      9 C          68.7209   93.0260   15.9251 C.ar    1  UNL1        0.0024
     10 C          69.0606   92.4678   14.5749 C.ar    1  UNL1        0.0312
     11 C          67.9679   91.9976   13.6612 C.ar    1  UNL1        0.1578
     12 F          68.3077   91.4394   12.3110 F       1  UNL1       -0.2026
     13 N          63.0154   87.9884   11.1973 N.am    1  UNL1       -0.2971
     14 C          62.6435   89.2064   11.9898 C.2     1  UNL1        0.2657
     15 O          61.2612   89.3389   12.5571 O.2     1  UNL1       -0.2684
     16 H          63.9227   87.9015   10.8250 H       1  UNL1        0.1500
     17 C          62.0051   86.9028   10.9720 C.3     1  UNL1        0.0996
     18 C          63.0262   85.5099    8.5190 C.3     1  UNL1        0.0308
     19 C          62.9322   84.7672    9.8188 C.ar    1  UNL1       -0.0243
     20 C          63.3487   83.3281    9.8922 C.ar    1  UNL1       -0.0045
     21 C          63.2547   82.5854   11.1920 C.ar    1  UNL1       -0.0003
     22 C          62.7441   83.2818   12.4185 C.ar    1  UNL1       -0.0003
     23 C          62.3276   84.7209   12.3451 C.ar    1  UNL1       -0.0030
     24 C          62.4216   85.4636   11.0453 C.ar    1  UNL1       -0.0081
     25 C          60.5783   87.2564   10.6735 C.3     1  UNL1        0.0658
     26 C          60.2258   87.9196    9.3750 C.2     1  UNL1        0.0523
     27 O          60.8173   89.2540    9.0296 O.co2   1  UNL1       -0.5491
     28 O          59.2819   87.2482    8.4219 O.co2   1  UNL1       -0.5491
     29 O          65.5164   93.5960   11.3903 O.3     1  UNL1       -0.4602
     30 C          66.7159   93.5806   10.4898 C.3     1  UNL1        0.2070
     31 C          66.9499   94.7118    9.5330 C.3     1  UNL1        0.0438
     32 C          66.8908   95.2700    8.1420 C.3     1  UNL1        0.0038
     33 C          67.4143   96.1131    9.2667 C.3     1  UNL1        0.0038
@<TRIPOS>UNITY_ATOM_ATTR
27 1
charge -1
@<TRIPOS>BOND
     1    18    19    1
     2    19    20   ar
     3    20    21   ar
     4    21    22   ar
     5    22    23   ar
     6    23    24   ar
     7    24    17    1
     8    17    25    1
     9    25    26    1
    10    26    27   ar
    11    26    28   ar
    12    17    13    1
    13    13    14   am
    14    14    15    2
    15    14     1    1
    16     1     2   ar
    17     2     3   ar
    18     3    29    1
    19    29    30    1
    20    30    31    1
    21    31    32    1
    22    32    33    1
    23     3     4   ar
    24     4     6    1
    25     6     7   ar
    26     7     8   ar
    27     8     9   ar
    28     9    10   ar
    29    10    11   ar
    30    11    12    1
    31     4     5   ar
    32    24    19   ar
    33     5     1   ar
    34    33    31    1
    35    11     6   ar
    36    13    16    1
@<TRIPOS>MOLECULE
*****
 33 36 0 0 0
SMALL
GASTEIGER

@<TRIPOS>ATOM
      1 C          63.2843   89.0315   12.5104 C.ar    1  UNL1        0.1591
      2 C          62.2034   88.8139   11.4935 C.ar    1  UNL1        0.0832
      3 C          61.9326   87.3408   11.4128 C.ar    1  UNL1        0.2278
      4 N          62.8461   86.6479   12.3800 N.ar    1  UNL1       -0.1958
      5 N          63.6815   87.6929   13.0584 N.ar    1  UNL1       -0.1578
      6 C          62.9125   85.1697   12.6258 C.ar    1  UNL1        0.1132
      7 C          62.6833   84.2105   11.4955 C.ar    1  UNL1        0.0215
      8 C          62.7497   82.7323   11.7412 C.ar    1  UNL1        0.0017
      9 C          63.0453   82.2132   13.1171 C.ar    1  UNL1        0.0024
     10 C          63.2744   83.1724   14.2474 C.ar    1  UNL1        0.0312
     11 C          63.2080   84.6506   14.0016 C.ar    1  UNL1        0.1578
     12 F          63.4372   85.6098   15.1320 F       1  UNL1       -0.2026
     13 N          65.0232   90.9270   12.1453 N.am    1  UNL1       -0.2971
     14 C          63.8660   90.3554   12.9094 C.2     1  UNL1        0.2657
     15 O          63.2903   91.1075   14.0726 O.2     1  UNL1       -0.2684
     16 H          65.4011   90.4334   11.3819 H       1  UNL1        0.1500
     17 C          65.6049   92.2508   12.5443 C.3     1  UNL1        0.0996
     18 C          68.5158   91.5855   12.2549 C.3     1  UNL1        0.0308
     19 C          67.9722   92.0094   13.5871 C.ar    1  UNL1       -0.0243
     20 C          68.8841   92.1007   14.7746 C.ar    1  UNL1       -0.0045
     21 C          68.3405   92.5245   16.1068 C.ar    1  UNL1       -0.0003
     22 C          66.8851   92.8572   16.2516 C.ar    1  UNL1       -0.0003
     23 C          65.9732   92.7660   15.0641 C.ar    1  UNL1       -0.0030
     24 C          66.5168   92.3421   13.7319 C.ar    1  UNL1       -0.0081
     25 C          65.2746   93.4834   11.7559 C.3     1  UNL1        0.0658
     26 C          66.3094   94.5527   11.5672 C.2     1  UNL1        0.0523
     27 O          66.2047   95.8406   12.3289 O.co2   1  UNL1       -0.5491
     28 O          67.4491   94.3341   10.6167 O.co2   1  UNL1       -0.5491
     29 O          60.9251   86.6771   10.5215 O.3     1  UNL1       -0.4602
     30 C          61.0398   86.8086    9.0317 C.3     1  UNL1        0.2070
     31 C          61.8992   85.8528    8.2585 C.3     1  UNL1        0.0438
     32 C          62.1240   84.9951    7.0486 C.3     1  UNL1        0.0038
     33 C          63.1628   85.0549    8.1290 C.3     1  UNL1        0.0038
@<TRIPOS>UNITY_ATOM_ATTR
27 1
charge -1
@<TRIPOS>BOND
     1    18    19    1
     2    19    20   ar
     3    20    21   ar
     4    21    22   ar
     5    22    23   ar
     6    23    24   ar
     7    24    17    1
     8    17    25    1
     9    25    26    1
    10    26    27   ar
    11    26    28   ar
    12    17    13    1
    13    13    14   am
    14    14    15    2
    15    14     1    1
    16     1     2   ar
    17     2     3   ar
    18     3    29    1
    19    29    30    1
    20    30    31    1
    21    31    32    1
    22    32    33    1
    23     3     4   ar
    24     4     6    1
    25     6     7   ar
    26     7     8   ar
    27     8     9   ar
    28     9    10   ar
    29    10    11   ar
    30    11    12    1
    31     4     5   ar
    32    24    19   ar
    33     5     1   ar
    34    33    31    1
    35    11     6   ar
    36    13    16    1
