@<TRIPOS>MOLECULE
*****
 33 37 0 0 0
SMALL
GASTEIGER

@<TRIPOS>ATOM
      1 C          62.6642   86.7168   11.8361 C.2     1  UNL1        0.2506
      2 O          63.4173   87.4159   12.9289 O.2     1  UNL1       -0.2699
      3 N          61.5935   87.4449   11.0789 N.am    1  UNL1       -0.2724
      4 C          60.8403   86.7459    9.9861 C.3     1  UNL1        0.1257
      5 C          59.7697   87.4740    9.2288 C.3     1  UNL1        0.1635
      6 O          59.4522   88.9012    9.5642 O.3     1  UNL1       -0.3527
      7 C          60.2053   89.6002   10.6570 C.3     1  UNL1        0.1337
      8 C          59.8878   91.0273   10.9924 C.3     1  UNL1        0.0338
      9 C          61.2760   88.8721   11.4143 C.3     1  UNL1        0.1071
     10 C          63.9341   81.0083   10.4944 C.3     1  UNL1        0.0311
     11 C          63.6167   82.4355   10.8298 C.ar    1  UNL1       -0.0203
     12 C          63.3787   83.4290    9.7315 C.ar    1  UNL1       -0.0040
     13 C          63.0612   84.8561   10.0670 C.ar    1  UNL1        0.0058
     14 C          62.9817   85.2897   11.5007 C.ar    1  UNL1        0.0729
     15 C          63.2197   84.2962   12.5990 C.ar    1  UNL1        0.1069
     16 C          63.5371   82.8691   12.2635 C.ar    1  UNL1        0.0168
     17 N          63.1402   84.7298   14.0328 N.ar    1  UNL1       -0.1477
     18 N          64.2636   85.3047   14.8436 N.ar    1  UNL1       -0.1447
     19 C          63.7411   85.5949   16.2194 C.ar    1  UNL1        0.1446
     20 C          62.2947   85.1992   16.2589 C.ar    1  UNL1        0.1446
     21 N          61.9233   84.6646   14.9075 N.ar    1  UNL1       -0.1447
     22 C          62.0292   89.5711   12.5070 C.3     1  UNL1        0.0487
     23 C          63.1482   90.5096   12.1649 C.ar    1  UNL1       -0.0189
     24 C          63.2800   91.0423   10.7690 C.ar    1  UNL1       -0.0041
     25 C          64.3990   91.9808   10.4269 C.ar    1  UNL1        0.0013
     26 C          65.3863   92.3865   11.4807 C.ar    1  UNL1        0.0209
     27 C          65.2545   91.8537   12.8767 C.ar    1  UNL1        0.1026
     28 C          64.1355   90.9152   13.2188 C.ar    1  UNL1        0.0167
     29 N          66.2418   92.2594   13.9307 N.ar    1  UNL1       -0.1478
     30 N          67.7291   92.3493   13.7577 N.ar    1  UNL1       -0.1447
     31 C          68.3216   92.7919   15.0627 C.ar    1  UNL1        0.1446
     32 C          67.2005   92.9755   16.0423 C.ar    1  UNL1        0.1446
     33 N          65.9151   92.6464   15.3426 N.ar    1  UNL1       -0.1447
@<TRIPOS>BOND
     1    10    11    1
     2    11    12   ar
     3    12    13   ar
     4    13    14   ar
     5    14     1    1
     6     1     2    2
     7     1     3   am
     8     3     4    1
     9     4     5    1
    10     5     6    1
    11     6     7    1
    12     7     8    1
    13     7     9    1
    14     9    22    1
    15    22    23    1
    16    23    24   ar
    17    24    25   ar
    18    25    26   ar
    19    26    27   ar
    20    27    29    1
    21    29    30   ar
    22    30    31   ar
    23    31    32   ar
    24    32    33   ar
    25    27    28   ar
    26    14    15   ar
    27    15    17    1
    28    17    18   ar
    29    18    19   ar
    30    19    20   ar
    31    20    21   ar
    32    15    16   ar
    33    16    11   ar
    34     9     3    1
    35    28    23   ar
    36    21    17   ar
    37    33    29   ar
@<TRIPOS>MOLECULE
*****
 33 37 0 0 0
SMALL
GASTEIGER

@<TRIPOS>ATOM
      1 C          63.5313   87.5344   13.2774 C.2     1  UNL1        0.2506
      2 O          63.7015   88.5304   12.1688 O.2     1  UNL1       -0.2699
      3 N          63.4385   88.0034   14.6991 N.am    1  UNL1       -0.2724
      4 C          63.2683   87.0074   15.8078 C.3     1  UNL1        0.1257
      5 C          63.1755   87.4763   17.2296 C.3     1  UNL1        0.1635
      6 O          63.2528   88.9412   17.5427 O.3     1  UNL1       -0.3527
      7 C          63.4230   89.9372   16.4341 C.3     1  UNL1        0.1337
      8 C          63.5003   91.4021   16.7473 C.3     1  UNL1        0.0338
      9 C          63.5158   89.4683   15.0123 C.3     1  UNL1        0.1071
     10 C          63.2219   81.6748   12.0248 C.3     1  UNL1        0.0311
     11 C          63.2993   83.1397   12.3379 C.ar    1  UNL1       -0.0203
     12 C          64.1738   83.6223   13.4570 C.ar    1  UNL1       -0.0040
     13 C          64.2511   85.0872   13.7701 C.ar    1  UNL1        0.0058
     14 C          63.4540   86.0695   12.9642 C.ar    1  UNL1        0.0729
     15 C          62.5795   85.5870   11.8452 C.ar    1  UNL1        0.1069
     16 C          62.5021   84.1220   11.5320 C.ar    1  UNL1        0.0168
     17 N          61.7822   86.5693   11.0392 N.ar    1  UNL1       -0.1477
     18 N          60.5840   87.3349   11.5167 N.ar    1  UNL1       -0.1447
     19 C          60.1044   88.1973   10.3870 C.ar    1  UNL1        0.1446
     20 C          61.0064   87.9646    9.2112 C.ar    1  UNL1        0.1446
     21 N          62.0433   86.9585    9.6143 N.ar    1  UNL1       -0.1447
     22 C          63.6860   90.4643   13.9037 C.3     1  UNL1        0.0487
     23 C          64.9978   91.1689   13.7233 C.ar    1  UNL1       -0.0189
     24 C          66.1278   90.9050   14.6738 C.ar    1  UNL1       -0.0041
     25 C          67.4397   91.6097   14.4934 C.ar    1  UNL1        0.0013
     26 C          67.6215   92.5783   13.3627 C.ar    1  UNL1        0.0209
     27 C          66.4915   92.8422   12.4122 C.ar    1  UNL1        0.1026
     28 C          65.1796   92.1375   12.5926 C.ar    1  UNL1        0.0167
     29 N          66.6733   93.8109   11.2814 N.ar    1  UNL1       -0.1478
     30 N          67.6160   93.6503   10.1258 N.ar    1  UNL1       -0.1447
     31 C          67.4696   94.8503    9.2379 C.ar    1  UNL1        0.1446
     32 C          66.4363   95.7526    9.8447 C.ar    1  UNL1        0.1446
     33 N          65.9441   95.1102   11.1076 N.ar    1  UNL1       -0.1447
@<TRIPOS>BOND
     1    10    11    1
     2    11    12   ar
     3    12    13   ar
     4    13    14   ar
     5    14     1    1
     6     1     2    2
     7     1     3   am
     8     3     4    1
     9     4     5    1
    10     5     6    1
    11     6     7    1
    12     7     8    1
    13     7     9    1
    14     9    22    1
    15    22    23    1
    16    23    24   ar
    17    24    25   ar
    18    25    26   ar
    19    26    27   ar
    20    27    29    1
    21    29    30   ar
    22    30    31   ar
    23    31    32   ar
    24    32    33   ar
    25    27    28   ar
    26    14    15   ar
    27    15    17    1
    28    17    18   ar
    29    18    19   ar
    30    19    20   ar
    31    20    21   ar
    32    15    16   ar
    33    16    11   ar
    34     9     3    1
    35    28    23   ar
    36    21    17   ar
    37    33    29   ar
@<TRIPOS>MOLECULE
*****
 33 37 0 0 0
SMALL
GASTEIGER

@<TRIPOS>ATOM
      1 C          64.0289   84.9328   14.0954 C.2     1  UNL1        0.2506
      2 O          65.1378   85.6693   13.4041 O.2     1  UNL1       -0.2699
      3 N          63.2897   85.5815   15.2280 N.am    1  UNL1       -0.2724
      4 C          62.1808   84.8450   15.9194 C.3     1  UNL1        0.1257
      5 C          61.4416   85.4937   17.0519 C.3     1  UNL1        0.1635
      6 O          61.8112   86.8789   17.4932 O.3     1  UNL1       -0.3527
      7 C          62.9201   87.6154   16.8018 C.3     1  UNL1        0.1337
      8 C          63.2897   89.0005   17.2431 C.3     1  UNL1        0.0338
      9 C          63.6593   86.9667   15.6692 C.3     1  UNL1        0.1071
     10 C          62.5503   79.3922   12.3305 C.3     1  UNL1        0.0311
     11 C          62.9200   80.7774   12.7717 C.ar    1  UNL1       -0.0203
     12 C          63.6708   80.9806   14.0542 C.ar    1  UNL1       -0.0040
     13 C          64.0404   82.3658   14.4955 C.ar    1  UNL1        0.0058
     14 C          63.6593   83.5477   13.6542 C.ar    1  UNL1        0.0729
     15 C          62.9085   83.3444   12.3717 C.ar    1  UNL1        0.1069
     16 C          62.5388   81.9592   11.9304 C.ar    1  UNL1        0.0168
     17 N          62.5273   84.5263   11.5303 N.ar    1  UNL1       -0.1477
     18 N          62.9382   84.7650   10.1075 N.ar    1  UNL1       -0.1447
     19 C          62.3332   86.0632    9.6618 C.ar    1  UNL1        0.1446
     20 C          61.5483   86.6269   10.8092 C.ar    1  UNL1        0.1446
     21 N          61.6683   85.6770   11.9639 N.ar    1  UNL1       -0.1447
     22 C          64.7682   87.7032   14.9779 C.3     1  UNL1        0.0487
     23 C          64.4640   88.9287   14.1682 C.ar    1  UNL1       -0.0189
     24 C          65.2443   90.1896   14.3941 C.ar    1  UNL1       -0.0041
     25 C          64.9401   91.4151   13.5844 C.ar    1  UNL1        0.0013
     26 C          63.8556   91.3796   12.5488 C.ar    1  UNL1        0.0209
     27 C          63.0753   90.1187   12.3228 C.ar    1  UNL1        0.1026
     28 C          63.3795   88.8932   13.1325 C.ar    1  UNL1        0.0167
     29 N          61.9908   90.0831   11.2871 N.ar    1  UNL1       -0.1478
     30 N          60.5184   90.2018   11.5479 N.ar    1  UNL1       -0.1447
     31 C          59.8059   90.1147   10.2308 C.ar    1  UNL1        0.1446
     32 C          60.8380   89.9423    9.1560 C.ar    1  UNL1        0.1446
     33 N          62.1883   89.9228    9.8089 N.ar    1  UNL1       -0.1447
@<TRIPOS>BOND
     1    10    11    1
     2    11    12   ar
     3    12    13   ar
     4    13    14   ar
     5    14     1    1
     6     1     2    2
     7     1     3   am
     8     3     4    1
     9     4     5    1
    10     5     6    1
    11     6     7    1
    12     7     8    1
    13     7     9    1
    14     9    22    1
    15    22    23    1
    16    23    24   ar
    17    24    25   ar
    18    25    26   ar
    19    26    27   ar
    20    27    29    1
    21    29    30   ar
    22    30    31   ar
    23    31    32   ar
    24    32    33   ar
    25    27    28   ar
    26    14    15   ar
    27    15    17    1
    28    17    18   ar
    29    18    19   ar
    30    19    20   ar
    31    20    21   ar
    32    15    16   ar
    33    16    11   ar
    34     9     3    1
    35    28    23   ar
    36    21    17   ar
    37    33    29   ar
@<TRIPOS>MOLECULE
*****
 33 37 0 0 0
SMALL
GASTEIGER

@<TRIPOS>ATOM
      1 C          63.3479   86.8189   13.2569 C.2     1  UNL1        0.2506
      2 O          63.7171   87.5996   14.4833 O.2     1  UNL1       -0.2699
      3 N          62.8862   87.5353   12.0226 N.am    1  UNL1       -0.2724
      4 C          62.5169   86.7545   10.7961 C.3     1  UNL1        0.1257
      5 C          62.0552   87.4709    9.5618 C.3     1  UNL1        0.1635
      6 O          61.9628   88.9681    9.5539 O.3     1  UNL1       -0.3527
      7 C          62.3321   89.7488   10.7803 C.3     1  UNL1        0.1337
      8 C          62.2396   91.2459   10.7723 C.3     1  UNL1        0.0338
      9 C          62.7938   89.0324   12.0147 C.3     1  UNL1        0.1071
     10 C          63.7176   80.8304   13.2886 C.3     1  UNL1        0.0311
     11 C          63.6251   82.3275   13.2807 C.ar    1  UNL1       -0.0203
     12 C          63.8561   83.0864   12.0077 C.ar    1  UNL1       -0.0040
     13 C          63.7636   84.5836   11.9998 C.ar    1  UNL1        0.0058
     14 C          63.4403   85.3217   13.2648 C.ar    1  UNL1        0.0729
     15 C          63.2094   84.5628   14.5379 C.ar    1  UNL1        0.1069
     16 C          63.3018   83.0657   14.5458 C.ar    1  UNL1        0.0168
     17 N          62.8860   85.3010   15.8030 N.ar    1  UNL1       -0.1477
     18 N          61.5120   85.6484   16.2945 N.ar    1  UNL1       -0.1447
     19 C          61.6567   86.3834   17.5940 C.ar    1  UNL1        0.1446
     20 C          63.1201   86.4903   17.9057 C.ar    1  UNL1        0.1446
     21 N          63.8798   85.8213   16.7988 N.ar    1  UNL1       -0.1447
     22 C          63.1630   89.8131   13.2410 C.3     1  UNL1        0.0487
     23 C          64.4528   90.5778   13.2832 C.ar    1  UNL1       -0.0189
     24 C          65.3767   90.4259   14.4551 C.ar    1  UNL1       -0.0041
     25 C          66.6665   91.1906   14.4973 C.ar    1  UNL1        0.0013
     26 C          67.0324   92.1070   13.3677 C.ar    1  UNL1        0.0209
     27 C          66.1085   92.2588   12.1958 C.ar    1  UNL1        0.1026
     28 C          64.8187   91.4942   12.1536 C.ar    1  UNL1        0.0167
     29 N          66.4744   93.1753   11.0660 N.ar    1  UNL1       -0.1478
     30 N          67.6883   93.0574   10.1928 N.ar    1  UNL1       -0.1447
     31 C          67.6547   94.1798    9.1983 C.ar    1  UNL1        0.1446
     32 C          66.4200   94.9914    9.4569 C.ar    1  UNL1        0.1446
     33 N          65.6906   94.3706   10.6112 N.ar    1  UNL1       -0.1447
@<TRIPOS>BOND
     1    10    11    1
     2    11    12   ar
     3    12    13   ar
     4    13    14   ar
     5    14     1    1
     6     1     2    2
     7     1     3   am
     8     3     4    1
     9     4     5    1
    10     5     6    1
    11     6     7    1
    12     7     8    1
    13     7     9    1
    14     9    22    1
    15    22    23    1
    16    23    24   ar
    17    24    25   ar
    18    25    26   ar
    19    26    27   ar
    20    27    29    1
    21    29    30   ar
    22    30    31   ar
    23    31    32   ar
    24    32    33   ar
    25    27    28   ar
    26    14    15   ar
    27    15    17    1
    28    17    18   ar
    29    18    19   ar
    30    19    20   ar
    31    20    21   ar
    32    15    16   ar
    33    16    11   ar
    34     9     3    1
    35    28    23   ar
    36    21    17   ar
    37    33    29   ar
@<TRIPOS>MOLECULE
*****
 33 37 0 0 0
SMALL
GASTEIGER

@<TRIPOS>ATOM
      1 C          62.9086   88.8694   12.1888 C.2     1  UNL1        0.2506
      2 O          62.8013   87.5682   12.9272 O.2     1  UNL1       -0.2699
      3 N          62.0979   89.0962   10.9474 N.am    1  UNL1       -0.2724
      4 C          62.2051   90.3975   10.2089 C.3     1  UNL1        0.1257
      5 C          61.3944   90.6244    8.9675 C.3     1  UNL1        0.1635
      6 O          60.4764   89.5500    8.4644 O.3     1  UNL1       -0.3527
      7 C          60.3691   88.2488    9.2028 C.3     1  UNL1        0.1337
      8 C          59.4511   87.1745    8.6998 C.3     1  UNL1        0.0338
      9 C          61.1799   88.0219   10.4444 C.3     1  UNL1        0.1071
     10 C          66.5806   93.1668   14.2010 C.3     1  UNL1        0.0311
     11 C          65.6626   92.0925   13.6979 C.ar    1  UNL1       -0.0203
     12 C          65.0762   92.1911   12.3209 C.ar    1  UNL1       -0.0040
     13 C          64.1582   91.1168   11.8178 C.ar    1  UNL1        0.0058
     14 C          63.8266   89.9437   12.6919 C.ar    1  UNL1        0.0729
     15 C          64.4130   89.8451   14.0689 C.ar    1  UNL1        0.1069
     16 C          65.3310   90.9194   14.5720 C.ar    1  UNL1        0.0168
     17 N          64.0814   88.6720   14.9431 N.ar    1  UNL1       -0.1477
     18 N          63.1283   88.6771   16.1014 N.ar    1  UNL1       -0.1447
     19 C          63.1025   87.2962   16.6866 C.ar    1  UNL1        0.1446
     20 C          64.0396   86.4376   15.8898 C.ar    1  UNL1        0.1446
     21 N          64.6445   87.2879   14.8123 N.ar    1  UNL1       -0.1447
     22 C          61.0726   86.7207   11.1828 C.3     1  UNL1        0.0487
     23 C          61.9602   85.5707   10.8089 C.ar    1  UNL1       -0.0189
     24 C          62.6764   85.5738    9.4909 C.ar    1  UNL1       -0.0041
     25 C          63.5641   84.4239    9.1170 C.ar    1  UNL1        0.0013
     26 C          63.7354   83.2709   10.0611 C.ar    1  UNL1        0.0209
     27 C          63.0192   83.2678   11.3790 C.ar    1  UNL1        0.1026
     28 C          62.1316   84.4178   11.7529 C.ar    1  UNL1        0.0167
     29 N          63.1906   82.1148   12.3231 N.ar    1  UNL1       -0.1478
     30 N          64.4253   81.7989   13.1140 N.ar    1  UNL1       -0.1447
     31 C          64.1551   80.5641   13.9217 C.ar    1  UNL1        0.1446
     32 C          62.7533   80.1170   13.6300 C.ar    1  UNL1        0.1446
     33 N          62.1572   81.0754   12.6420 N.ar    1  UNL1       -0.1447
@<TRIPOS>BOND
     1    10    11    1
     2    11    12   ar
     3    12    13   ar
     4    13    14   ar
     5    14     1    1
     6     1     2    2
     7     1     3   am
     8     3     4    1
     9     4     5    1
    10     5     6    1
    11     6     7    1
    12     7     8    1
    13     7     9    1
    14     9    22    1
    15    22    23    1
    16    23    24   ar
    17    24    25   ar
    18    25    26   ar
    19    26    27   ar
    20    27    29    1
    21    29    30   ar
    22    30    31   ar
    23    31    32   ar
    24    32    33   ar
    25    27    28   ar
    26    14    15   ar
    27    15    17    1
    28    17    18   ar
    29    18    19   ar
    30    19    20   ar
    31    20    21   ar
    32    15    16   ar
    33    16    11   ar
    34     9     3    1
    35    28    23   ar
    36    21    17   ar
    37    33    29   ar
@<TRIPOS>MOLECULE
*****
 33 37 0 0 0
SMALL
GASTEIGER

@<TRIPOS>ATOM
      1 C          63.8877   85.2585   14.0418 C.2     1  UNL1        0.2506
      2 O          64.8848   85.9942   13.1966 O.2     1  UNL1       -0.2699
      3 N          63.2490   85.9420   15.2142 N.am    1  UNL1       -0.2724
      4 C          62.2518   85.2063   16.0595 C.3     1  UNL1        0.1257
      5 C          61.6131   85.8898   17.2320 C.3     1  UNL1        0.1635
      6 O          61.9715   87.3091   17.5592 O.3     1  UNL1       -0.3527
      7 C          62.9686   88.0449   16.7140 C.3     1  UNL1        0.1337
      8 C          63.3269   89.4642   17.0413 C.3     1  UNL1        0.0338
      9 C          63.6073   87.3613   15.5415 C.3     1  UNL1        0.1071
     10 C          62.4542   79.5812   12.7327 C.3     1  UNL1        0.0311
     11 C          62.8126   81.0005   13.0600 C.ar    1  UNL1       -0.0203
     12 C          63.5303   81.3171   14.3384 C.ar    1  UNL1       -0.0040
     13 C          63.8887   82.7364   14.6657 C.ar    1  UNL1        0.0058
     14 C          63.5293   83.8391   13.7145 C.ar    1  UNL1        0.0729
     15 C          62.8116   83.5225   12.4360 C.ar    1  UNL1        0.1069
     16 C          62.4532   82.1032   12.1087 C.ar    1  UNL1        0.0168
     17 N          62.4522   84.6253   11.4847 N.ar    1  UNL1       -0.1477
     18 N          61.5184   85.7645   11.7679 N.ar    1  UNL1       -0.1447
     19 C          61.4525   86.6257   10.5415 C.ar    1  UNL1        0.1446
     20 C          62.3456   86.0186    9.5004 C.ar    1  UNL1        0.1446
     21 N          62.9634   84.7823   10.0833 N.ar    1  UNL1       -0.1447
     22 C          64.6044   88.0971   14.6963 C.3     1  UNL1        0.0487
     23 C          64.1358   89.1106   13.6947 C.ar    1  UNL1       -0.0189
     24 C          62.9111   88.8411   12.8718 C.ar    1  UNL1       -0.0041
     25 C          62.4425   89.8546   11.8702 C.ar    1  UNL1        0.0013
     26 C          63.1986   91.1377   11.6915 C.ar    1  UNL1        0.0209
     27 C          64.4234   91.4072   12.5145 C.ar    1  UNL1        0.1026
     28 C          64.8920   90.3937   13.5160 C.ar    1  UNL1        0.0167
     29 N          65.1796   92.6903   12.3358 N.ar    1  UNL1       -0.1478
     30 N          65.8245   93.4929   13.4267 N.ar    1  UNL1       -0.1447
     31 C          66.4671   94.6946   12.8000 C.ar    1  UNL1        0.1446
     32 C          66.2195   94.6348   11.3217 C.ar    1  UNL1        0.1446
     33 N          65.4238   93.3960   11.0349 N.ar    1  UNL1       -0.1447
@<TRIPOS>BOND
     1    10    11    1
     2    11    12   ar
     3    12    13   ar
     4    13    14   ar
     5    14     1    1
     6     1     2    2
     7     1     3   am
     8     3     4    1
     9     4     5    1
    10     5     6    1
    11     6     7    1
    12     7     8    1
    13     7     9    1
    14     9    22    1
    15    22    23    1
    16    23    24   ar
    17    24    25   ar
    18    25    26   ar
    19    26    27   ar
    20    27    29    1
    21    29    30   ar
    22    30    31   ar
    23    31    32   ar
    24    32    33   ar
    25    27    28   ar
    26    14    15   ar
    27    15    17    1
    28    17    18   ar
    29    18    19   ar
    30    19    20   ar
    31    20    21   ar
    32    15    16   ar
    33    16    11   ar
    34     9     3    1
    35    28    23   ar
    36    21    17   ar
    37    33    29   ar
