@<TRIPOS>MOLECULE
*****
 28 32 0 0 0
SMALL
GASTEIGER

@<TRIPOS>ATOM
      1 C          64.5578   91.0670   14.4684 C.3     1  UNL1        0.0718
      2 C          64.3493   89.5996   14.2371 C.3     1  UNL1        0.0181
      3 C          64.5013   88.1784   14.6919 C.3     1  UNL1        0.0036
      4 C          64.5085   86.6898   14.8769 C.3     1  UNL1        0.0245
      5 C          63.8481   86.0709   13.6807 C.3     1  UNL1        0.1069
      6 C          63.4327   87.1770   12.7565 C.3     1  UNL1        0.0245
      7 C          63.8364   88.4795   13.3815 C.3     1  UNL1        0.0036
      8 N          63.6396   84.6036   13.4493 N.ar    1  UNL1       -0.2325
      9 C          64.5599   83.6906   12.6946 C.ar    1  UNL1        0.1968
     10 N          63.9633   82.3144   12.7109 N.ar    1  UNL1       -0.2076
     11 C          62.6744   82.3769   13.4757 C.ar    1  UNL1        0.1600
     12 N          62.4744   83.7917   13.9321 N.ar    1  UNL1       -0.1531
     13 C          61.7483   81.2265   13.7380 C.3     1  UNL1        0.0605
     14 C          60.4030   80.7110   14.1558 C.3     1  UNL1        0.0080
     15 C          61.4894   79.7495   13.7746 C.3     1  UNL1        0.0080
     16 N          64.8689   91.9716   13.3130 N.am    1  UNL1       -0.3025
     17 C          66.2926   92.1920   12.8953 C.2     1  UNL1        0.2458
     18 O          67.4052   91.5078   13.6328 O.2     1  UNL1       -0.2701
     19 H          64.1387   92.4207   12.8289 H       1  UNL1        0.1497
     20 C          66.6038   93.0967   11.7399 C.ar    1  UNL1        0.0534
     21 C          67.2847   92.5491   10.5207 C.ar    1  UNL1        0.0054
     22 C          67.5959   93.4537    9.3654 C.ar    1  UNL1        0.0115
     23 C          67.2260   94.9060    9.4293 C.ar    1  UNL1        0.0577
     24 CL         67.5372   95.8107    8.2739 Cl      1  UNL1       -0.0822
     25 C          66.5450   95.4536   10.6484 C.ar    1  UNL1        0.0115
     26 C          66.2339   94.5490   11.8037 C.ar    1  UNL1        0.0054
     27 C          65.5787   92.4492   16.4169 C.3     1  UNL1        0.0017
     28 C          64.4551   91.6296   15.8550 C.3     1  UNL1        0.0196
@<TRIPOS>BOND
     1    27    28    1
     2    28     1    1
     3     1    16    1
     4    16    17   am
     5    17    18    2
     6    17    20    1
     7    20    21   ar
     8    21    22   ar
     9    22    23   ar
    10    23    24    1
    11    23    25   ar
    12    25    26   ar
    13     2     1    1
    14     2     3    1
    15     3     4    1
    16     4     5    1
    17     5     8    1
    18     8     9   ar
    19     9    10   ar
    20    10    11   ar
    21    11    13    1
    22    13    14    1
    23    14    15    1
    24    11    12   ar
    25     5     6    1
    26     7     6    1
    27    26    20   ar
    28     7     2    1
    29     7     3    1
    30    12     8   ar
    31    15    13    1
    32    16    19    1
@<TRIPOS>MOLECULE
*****
 28 32 0 0 0
SMALL
GASTEIGER

@<TRIPOS>ATOM
      1 C          60.9809   87.4868   10.9735 C.3     1  UNL1        0.0718
      2 C          61.8944   88.6756   11.0222 C.3     1  UNL1        0.0181
      3 C          62.9227   89.4949   11.7441 C.3     1  UNL1        0.0036
      4 C          63.9382   90.4955   12.2105 C.3     1  UNL1        0.0245
      5 C          64.0911   91.5344   11.1393 C.3     1  UNL1        0.1069
      6 C          63.1702   91.1758   10.0109 C.3     1  UNL1        0.0245
      7 C          62.4481   89.9153   10.3846 C.3     1  UNL1        0.0036
      8 N          65.0046   92.7232   11.1880 N.ar    1  UNL1       -0.2325
      9 C          65.7262   93.2316   12.4009 C.ar    1  UNL1        0.1968
     10 N          66.5244   94.4349   11.9949 N.ar    1  UNL1       -0.2076
     11 C          66.2962   94.6703   10.5311 C.ar    1  UNL1        0.1600
     12 N          65.3569   93.6124   10.0325 N.ar    1  UNL1       -0.1531
     13 C          66.9011   95.7703    9.7103 C.3     1  UNL1        0.0605
     14 C          67.9228   96.8559    9.5442 C.3     1  UNL1        0.0080
     15 C          66.9270   96.5901    8.4544 C.3     1  UNL1        0.0080
     16 N          61.3256   86.2442   11.7398 N.am    1  UNL1       -0.3025
     17 C          62.2354   85.2173   11.1336 C.2     1  UNL1        0.2458
     18 O          62.8007   85.4329    9.7610 O.2     1  UNL1       -0.2701
     19 H          60.9546   86.1027   12.6407 H       1  UNL1        0.1497
     20 C          62.5801   83.9747   11.9000 C.ar    1  UNL1        0.0534
     21 C          62.7626   84.0374   13.3875 C.ar    1  UNL1        0.0054
     22 C          63.1073   82.7948   14.1538 C.ar    1  UNL1        0.0115
     23 C          63.2694   81.4896   13.4326 C.ar    1  UNL1        0.0577
     24 CL         63.6141   80.2470   14.1989 Cl      1  UNL1       -0.0822
     25 C          63.0869   81.4269   11.9451 C.ar    1  UNL1        0.0115
     26 C          62.7422   82.6695   11.1788 C.ar    1  UNL1        0.0054
     27 C          59.7981   87.5183    8.6605 C.3     1  UNL1        0.0017
     28 C          59.7228   87.5405   10.1584 C.3     1  UNL1        0.0196
@<TRIPOS>BOND
     1    27    28    1
     2    28     1    1
     3     1    16    1
     4    16    17   am
     5    17    18    2
     6    17    20    1
     7    20    21   ar
     8    21    22   ar
     9    22    23   ar
    10    23    24    1
    11    23    25   ar
    12    25    26   ar
    13     2     1    1
    14     2     3    1
    15     3     4    1
    16     4     5    1
    17     5     8    1
    18     8     9   ar
    19     9    10   ar
    20    10    11   ar
    21    11    13    1
    22    13    14    1
    23    14    15    1
    24    11    12   ar
    25     5     6    1
    26     7     6    1
    27    26    20   ar
    28     7     2    1
    29     7     3    1
    30    12     8   ar
    31    15    13    1
    32    16    19    1
@<TRIPOS>MOLECULE
*****
 28 32 0 0 0
SMALL
GASTEIGER

@<TRIPOS>ATOM
      1 C          62.7520   89.8444   11.8084 C.3     1  UNL1        0.0718
      2 C          62.7422   88.3460   11.8781 C.3     1  UNL1        0.0181
      3 C          63.1113   87.0762   12.5860 C.3     1  UNL1        0.0036
      4 C          63.3354   85.6682   13.0525 C.3     1  UNL1        0.0245
      5 C          62.7187   84.7427   12.0459 C.3     1  UNL1        0.1069
      6 C          62.1136   85.5787   10.9573 C.3     1  UNL1        0.0245
      7 C          62.3562   87.0208   11.2911 C.3     1  UNL1        0.0036
      8 N          62.7090   83.2444   12.1156 N.ar    1  UNL1       -0.2325
      9 C          62.6039   82.4205   13.3648 C.ar    1  UNL1        0.1968
     10 N          62.6326   80.9738   12.9696 N.ar    1  UNL1       -0.2076
     11 C          62.7553   80.9035   11.4763 C.ar    1  UNL1        0.1600
     12 N          62.8025   82.3068   10.9485 N.ar    1  UNL1       -0.1531
     13 C          62.8195   79.6500   10.6550 C.3     1  UNL1        0.0605
     14 C          62.9887   78.9747    9.3264 C.3     1  UNL1        0.0080
     15 C          62.7616   78.1540   10.5613 C.3     1  UNL1        0.0080
     16 N          63.9325   90.6116   12.3260 N.am    1  UNL1       -0.3025
     17 C          64.1044   90.8178   13.8018 C.2     1  UNL1        0.2458
     18 O          63.0959   90.2567   14.7599 O.2     1  UNL1       -0.2701
     19 H          64.5944   90.9799   11.6971 H       1  UNL1        0.1497
     20 C          65.2849   91.5850   14.3194 C.ar    1  UNL1        0.0534
     21 C          65.3425   91.9888   15.7628 C.ar    1  UNL1        0.0054
     22 C          66.5229   92.7560   16.2804 C.ar    1  UNL1        0.0115
     23 C          67.6458   93.1194   15.3545 C.ar    1  UNL1        0.0577
     24 CL         68.8263   93.8866   15.8722 Cl      1  UNL1       -0.0822
     25 C          67.5882   92.7155   13.9111 C.ar    1  UNL1        0.0115
     26 C          66.4077   91.9483   13.3935 C.ar    1  UNL1        0.0054
     27 C          60.1859   90.0948   11.4887 C.3     1  UNL1        0.0017
     28 C          61.5813   90.5755   11.2210 C.3     1  UNL1        0.0196
@<TRIPOS>BOND
     1    27    28    1
     2    28     1    1
     3     1    16    1
     4    16    17   am
     5    17    18    2
     6    17    20    1
     7    20    21   ar
     8    21    22   ar
     9    22    23   ar
    10    23    24    1
    11    23    25   ar
    12    25    26   ar
    13     2     1    1
    14     2     3    1
    15     3     4    1
    16     4     5    1
    17     5     8    1
    18     8     9   ar
    19     9    10   ar
    20    10    11   ar
    21    11    13    1
    22    13    14    1
    23    14    15    1
    24    11    12   ar
    25     5     6    1
    26     7     6    1
    27    26    20   ar
    28     7     2    1
    29     7     3    1
    30    12     8   ar
    31    15    13    1
    32    16    19    1
@<TRIPOS>MOLECULE
*****
 28 32 0 0 0
SMALL
GASTEIGER

@<TRIPOS>ATOM
      1 C          61.3146   87.2823   11.1360 C.3     1  UNL1        0.0718
      2 C          62.2611   88.3593   11.5766 C.3     1  UNL1        0.0181
      3 C          62.9421   89.6722   11.3268 C.3     1  UNL1        0.0036
      4 C          63.7566   90.9315   11.3555 C.3     1  UNL1        0.0245
      5 C          64.5375   90.9492   12.6362 C.3     1  UNL1        0.1069
      6 C          64.2056   89.7009   13.3988 C.3     1  UNL1        0.0245
      7 C          63.2196   88.9117   12.5895 C.3     1  UNL1        0.0036
      8 N          65.4841   92.0262   13.0768 N.ar    1  UNL1       -0.2325
      9 C          65.6538   93.3694   12.4309 C.ar    1  UNL1        0.1968
     10 N          66.7018   94.1224   13.1956 N.ar    1  UNL1       -0.2076
     11 C          67.1798   93.2446   14.3141 C.ar    1  UNL1        0.1600
     12 N          66.4272   91.9491   14.2407 N.ar    1  UNL1       -0.1531
     13 C          68.2265   93.6000   15.3279 C.3     1  UNL1        0.0605
     14 C          69.0384   94.6350   16.0489 C.3     1  UNL1        0.0080
     15 C          69.2277   93.1805   16.3631 C.3     1  UNL1        0.0080
     16 N          61.3882   85.9189   11.7571 N.am    1  UNL1       -0.3025
     17 C          62.3906   84.9207   11.2583 C.2     1  UNL1        0.2458
     18 O          63.3193   85.2858   10.1384 O.2     1  UNL1       -0.2701
     19 H          60.7787   85.6792   12.4921 H       1  UNL1        0.1497
     20 C          62.4642   83.5572   11.8793 C.ar    1  UNL1        0.0534
     21 C          62.2848   83.3968   13.3599 C.ar    1  UNL1        0.0054
     22 C          62.3585   82.0334   13.9809 C.ar    1  UNL1        0.0115
     23 C          62.6115   80.8304   13.1214 C.ar    1  UNL1        0.0577
     24 CL         62.6852   79.4670   13.7424 Cl      1  UNL1       -0.0822
     25 C          62.7909   80.9909   11.6408 C.ar    1  UNL1        0.0115
     26 C          62.7173   82.3542   11.0198 C.ar    1  UNL1        0.0054
     27 C          60.3785   86.8755    8.7468 C.3     1  UNL1        0.0017
     28 C          60.2944   87.5687   10.0743 C.3     1  UNL1        0.0196
@<TRIPOS>BOND
     1    27    28    1
     2    28     1    1
     3     1    16    1
     4    16    17   am
     5    17    18    2
     6    17    20    1
     7    20    21   ar
     8    21    22   ar
     9    22    23   ar
    10    23    24    1
    11    23    25   ar
    12    25    26   ar
    13     2     1    1
    14     2     3    1
    15     3     4    1
    16     4     5    1
    17     5     8    1
    18     8     9   ar
    19     9    10   ar
    20    10    11   ar
    21    11    13    1
    22    13    14    1
    23    14    15    1
    24    11    12   ar
    25     5     6    1
    26     7     6    1
    27    26    20   ar
    28     7     2    1
    29     7     3    1
    30    12     8   ar
    31    15    13    1
    32    16    19    1
@<TRIPOS>MOLECULE
*****
 28 32 0 0 0
SMALL
GASTEIGER

@<TRIPOS>ATOM
      1 C          62.0299   86.5610   11.0874 C.3     1  UNL1        0.0718
      2 C          62.7335   87.5906   11.9209 C.3     1  UNL1        0.0181
      3 C          63.5313   87.9520   13.1387 C.3     1  UNL1        0.0036
      4 C          64.3169   88.6036   14.2380 C.3     1  UNL1        0.0245
      5 C          64.4257   90.0667   13.9255 C.3     1  UNL1        0.1069
      6 C          63.7073   90.3193   12.6332 C.3     1  UNL1        0.0245
      7 C          63.1545   89.0124   12.1469 C.3     1  UNL1        0.0036
      8 N          65.1293   91.0963   14.7590 N.ar    1  UNL1       -0.2325
      9 C          64.5384   91.8499   15.9137 C.ar    1  UNL1        0.1968
     10 N          65.5913   92.7725   16.4525 N.ar    1  UNL1       -0.2076
     11 C          66.8329   92.5891   15.6310 C.ar    1  UNL1        0.1600
     12 N          66.5473   91.5532   14.5844 N.ar    1  UNL1       -0.1531
     13 C          68.1318   93.3142   15.8225 C.3     1  UNL1        0.0605
     14 C          68.8821   94.5615   16.1851 C.3     1  UNL1        0.0080
     15 C          69.6314   93.3231   15.7916 C.3     1  UNL1        0.0080
     16 N          61.8094   85.1799   11.6298 N.am    1  UNL1       -0.3025
     17 C          62.9187   84.1712   11.5867 C.2     1  UNL1        0.2458
     18 O          64.2486   84.5435   11.0012 O.2     1  UNL1       -0.2701
     19 H          60.9366   84.9355   12.0141 H       1  UNL1        0.1497
     20 C          62.6982   82.7902   12.1291 C.ar    1  UNL1        0.0534
     21 C          63.0177   81.5927   11.2842 C.ar    1  UNL1        0.0054
     22 C          62.7972   80.2117   11.8267 C.ar    1  UNL1        0.0115
     23 C          62.2571   80.0283   13.2140 C.ar    1  UNL1        0.0577
     24 CL         62.0366   78.6472   13.7564 Cl      1  UNL1       -0.0822
     25 C          61.9377   81.2257   14.0589 C.ar    1  UNL1        0.0115
     26 C          62.1582   82.6067   13.5165 C.ar    1  UNL1        0.0054
     27 C          61.7764   85.9650    8.5714 C.3     1  UNL1        0.0017
     28 C          61.5468   86.9123    9.7115 C.3     1  UNL1        0.0196
@<TRIPOS>BOND
     1    27    28    1
     2    28     1    1
     3     1    16    1
     4    16    17   am
     5    17    18    2
     6    17    20    1
     7    20    21   ar
     8    21    22   ar
     9    22    23   ar
    10    23    24    1
    11    23    25   ar
    12    25    26   ar
    13     2     1    1
    14     2     3    1
    15     3     4    1
    16     4     5    1
    17     5     8    1
    18     8     9   ar
    19     9    10   ar
    20    10    11   ar
    21    11    13    1
    22    13    14    1
    23    14    15    1
    24    11    12   ar
    25     5     6    1
    26     7     6    1
    27    26    20   ar
    28     7     2    1
    29     7     3    1
    30    12     8   ar
    31    15    13    1
    32    16    19    1
@<TRIPOS>MOLECULE
*****
 28 32 0 0 0
SMALL
GASTEIGER

@<TRIPOS>ATOM
      1 C          64.1499   89.0666   15.0112 C.3     1  UNL1        0.0718
      2 C          63.9766   87.6293   14.6187 C.3     1  UNL1        0.0181
      3 C          63.5170   86.5990   13.6301 C.3     1  UNL1        0.0036
      4 C          63.1608   85.3646   12.8559 C.3     1  UNL1        0.0245
      5 C          63.5598   84.1727   13.6747 C.3     1  UNL1        0.1069
      6 C          64.1625   84.6706   14.9549 C.3     1  UNL1        0.0245
      7 C          64.1360   86.1701   14.9274 C.3     1  UNL1        0.0036
      8 N          63.3865   82.7354   13.2822 N.ar    1  UNL1       -0.2325
      9 C          63.3627   81.5628   14.2174 C.ar    1  UNL1        0.1968
     10 N          63.1680   80.3210   13.3987 N.ar    1  UNL1       -0.2076
     11 C          63.0715   80.7261   11.9577 C.ar    1  UNL1        0.1600
     12 N          63.2066   82.2183   11.8857 N.ar    1  UNL1       -0.1531
     13 C          62.8746   79.8015   10.7932 C.3     1  UNL1        0.0605
     14 C          62.8013   78.4103   10.2370 C.3     1  UNL1        0.0080
     15 C          62.6068   79.5910    9.3324 C.3     1  UNL1        0.0080
     16 N          64.9574   89.9883   14.1459 N.am    1  UNL1       -0.3025
     17 C          64.2717   90.8691   13.1439 C.2     1  UNL1        0.2458
     18 O          62.7785   90.8283   13.0072 O.2     1  UNL1       -0.2701
     19 H          65.9374   90.0150   14.2356 H       1  UNL1        0.1497
     20 C          65.0792   91.7907   12.2787 C.ar    1  UNL1        0.0534
     21 C          64.6270   92.0957   10.8814 C.ar    1  UNL1        0.0054
     22 C          65.4345   93.0173   10.0162 C.ar    1  UNL1        0.0115
     23 C          66.6941   93.6339   10.5483 C.ar    1  UNL1        0.0577
     24 CL         67.5016   94.5555    9.6830 Cl      1  UNL1       -0.0822
     25 C          67.1463   93.3289   11.9456 C.ar    1  UNL1        0.0115
     26 C          66.3388   92.4073   12.8108 C.ar    1  UNL1        0.0054
     27 C          63.6567   91.0285   16.6414 C.3     1  UNL1        0.0017
     28 C          63.5158   89.5823   16.2689 C.3     1  UNL1        0.0196
@<TRIPOS>BOND
     1    27    28    1
     2    28     1    1
     3     1    16    1
     4    16    17   am
     5    17    18    2
     6    17    20    1
     7    20    21   ar
     8    21    22   ar
     9    22    23   ar
    10    23    24    1
    11    23    25   ar
    12    25    26   ar
    13     2     1    1
    14     2     3    1
    15     3     4    1
    16     4     5    1
    17     5     8    1
    18     8     9   ar
    19     9    10   ar
    20    10    11   ar
    21    11    13    1
    22    13    14    1
    23    14    15    1
    24    11    12   ar
    25     5     6    1
    26     7     6    1
    27    26    20   ar
    28     7     2    1
    29     7     3    1
    30    12     8   ar
    31    15    13    1
    32    16    19    1
@<TRIPOS>MOLECULE
*****
 28 32 0 0 0
SMALL
GASTEIGER

@<TRIPOS>ATOM
      1 C          58.5846   91.0081    4.9916 C.3     1  UNL1        0.0718
      2 C          59.1162   90.1160    6.0740 C.3     1  UNL1        0.0181
      3 C          59.8346   89.9438    7.3794 C.3     1  UNL1        0.0036
      4 C          60.4997   89.4665    8.6363 C.3     1  UNL1        0.0245
      5 C          60.3947   87.9706    8.6769 C.3     1  UNL1        0.1069
      6 C          59.6648   87.5236    7.4451 C.3     1  UNL1        0.0245
      7 C          59.3186   88.7431    6.6432 C.3     1  UNL1        0.0036
      8 N          60.9264   87.0785    9.7593 N.ar    1  UNL1       -0.2325
      9 C          60.7501   87.2814   11.2351 C.ar    1  UNL1        0.1968
     10 N          61.4424   86.1552   11.9437 N.ar    1  UNL1       -0.2076
     11 C          62.0466   85.2562   10.9060 C.ar    1  UNL1        0.1600
     12 N          61.7277   85.8269    9.5560 N.ar    1  UNL1       -0.1531
     13 C          62.8319   84.0062   11.1718 C.3     1  UNL1        0.0605
     14 C          64.0585   83.1713   10.9522 C.3     1  UNL1        0.0080
     15 C          62.9653   82.6758   11.8517 C.3     1  UNL1        0.0080
     16 N          59.4432   91.3459    3.8089 N.am    1  UNL1       -0.3025
     17 C          59.8796   92.7624    3.5791 C.2     1  UNL1        0.2458
     18 O          59.4576   93.8412    4.5320 O.2     1  UNL1       -0.2701
     19 H          59.7202   90.6378    3.1835 H       1  UNL1        0.1497
     20 C          60.7382   93.1002    2.3963 C.ar    1  UNL1        0.0534
     21 C          60.1506   93.8357    1.2286 C.ar    1  UNL1        0.0054
     22 C          61.0092   94.1735    0.0460 C.ar    1  UNL1        0.0115
     23 C          62.4555   93.7757    0.0311 C.ar    1  UNL1        0.0577
     24 CL         63.3141   94.1134   -1.1517 Cl      1  UNL1       -0.0822
     25 C          63.0431   93.0401    1.1988 C.ar    1  UNL1        0.0115
     26 C          62.1845   92.7023    2.3814 C.ar    1  UNL1        0.0054
     27 C          56.0382   90.6442    5.3568 C.3     1  UNL1        0.0017
     28 C          57.1944   91.5624    5.0919 C.3     1  UNL1        0.0196
@<TRIPOS>BOND
     1    27    28    1
     2    28     1    1
     3     1    16    1
     4    16    17   am
     5    17    18    2
     6    17    20    1
     7    20    21   ar
     8    21    22   ar
     9    22    23   ar
    10    23    24    1
    11    23    25   ar
    12    25    26   ar
    13     2     1    1
    14     2     3    1
    15     3     4    1
    16     4     5    1
    17     5     8    1
    18     8     9   ar
    19     9    10   ar
    20    10    11   ar
    21    11    13    1
    22    13    14    1
    23    14    15    1
    24    11    12   ar
    25     5     6    1
    26     7     6    1
    27    26    20   ar
    28     7     2    1
    29     7     3    1
    30    12     8   ar
    31    15    13    1
    32    16    19    1
