@<TRIPOS>MOLECULE
*****
 7 7 0 0 0
SMALL
GASTEIGER

@<TRIPOS>ATOM
      1 N          63.4165   82.3312   12.6289 N.ar    1  UNL1       -0.2850
      2 C          62.8966   80.9645   12.2945 C.ar    1  UNL1        0.1023
      3 C          62.1240   80.4601   13.4771 C.ar    1  UNL1        0.1196
      4 N          62.1664   81.5151   14.5426 N.ar    1  UNL1       -0.2220
      5 C          62.9652   82.6715   14.0183 C.ar    1  UNL1        0.1829
      6 C          64.1942   83.0106   10.2450 C.2     1  UNL1        0.0206
      7 C          64.2427   83.2042   11.7316 C.2     1  UNL1        0.0816
@<TRIPOS>BOND
     1     6     7    2
     2     7     1    1
     3     1     2   ar
     4     2     3   ar
     5     3     4   ar
     6     4     5   ar
     7     5     1   ar
@<TRIPOS>MOLECULE
*****
 7 7 0 0 0
SMALL
GASTEIGER

@<TRIPOS>ATOM
      1 N          67.1418   94.3795    9.9997 N.ar    1  UNL1       -0.2850
      2 C          66.4394   95.1604   11.0707 C.ar    1  UNL1        0.1023
      3 C          66.4760   96.6100   10.6870 C.ar    1  UNL1        0.1196
      4 N          67.2009   96.7251    9.3788 N.ar    1  UNL1       -0.2220
      5 C          67.6124   95.3466    8.9541 C.ar    1  UNL1        0.1829
      6 C          68.5093   92.3018    9.2495 C.2     1  UNL1        0.0206
      7 C          67.3389   92.8927    9.9781 C.2     1  UNL1        0.0816
@<TRIPOS>BOND
     1     6     7    2
     2     7     1    1
     3     1     2   ar
     4     2     3   ar
     5     3     4   ar
     6     4     5   ar
     7     5     1   ar
@<TRIPOS>MOLECULE
*****
 7 7 0 0 0
SMALL
GASTEIGER

@<TRIPOS>ATOM
      1 N          62.3358   82.8115   14.0330 N.ar    1  UNL1       -0.2850
      2 C          62.8163   83.4447   12.7609 C.ar    1  UNL1        0.1023
      3 C          63.2729   84.8375   13.0800 C.ar    1  UNL1        0.1196
      4 N          63.0747   85.0650   14.5494 N.ar    1  UNL1       -0.2220
      5 C          62.4955   83.8129   15.1383 C.ar    1  UNL1        0.1829
      6 C          62.3040   80.3212   13.2931 C.2     1  UNL1        0.0206
      7 C          61.7912   81.4211   14.1748 C.2     1  UNL1        0.0816
@<TRIPOS>BOND
     1     6     7    2
     2     7     1    1
     3     1     2   ar
     4     2     3   ar
     5     3     4   ar
     6     4     5   ar
     7     5     1   ar
@<TRIPOS>MOLECULE
*****
 7 7 0 0 0
SMALL
GASTEIGER

@<TRIPOS>ATOM
      1 N          63.6151   83.1569   12.9177 N.ar    1  UNL1       -0.2850
      2 C          63.5097   82.6150   14.3124 C.ar    1  UNL1        0.1023
      3 C          62.7517   83.6100   15.1403 C.ar    1  UNL1        0.1196
      4 N          62.3886   84.7669   14.2572 N.ar    1  UNL1       -0.2220
      5 C          62.9222   84.4868   12.8836 C.ar    1  UNL1        0.1829
      6 C          64.2562   83.1181   10.4003 C.2     1  UNL1        0.0206
      7 C          64.2941   82.4865   11.7603 C.2     1  UNL1        0.0816
@<TRIPOS>BOND
     1     6     7    2
     2     7     1    1
     3     1     2   ar
     4     2     3   ar
     5     3     4   ar
     6     4     5   ar
     7     5     1   ar
@<TRIPOS>MOLECULE
*****
 7 7 0 0 0
SMALL
GASTEIGER

@<TRIPOS>ATOM
      1 N          63.6642   82.8611   13.9048 N.ar    1  UNL1       -0.2850
      2 C          63.8118   81.5515   13.1883 C.ar    1  UNL1        0.1023
      3 C          62.5811   80.7363   13.4542 C.ar    1  UNL1        0.1196
      4 N          61.6728   81.5420   14.3351 N.ar    1  UNL1       -0.2220
      5 C          62.3422   82.8551   14.6135 C.ar    1  UNL1        0.1829
      6 C          64.4365   85.1826   14.7787 C.2     1  UNL1        0.0206
      7 C          64.6631   83.9800   13.9114 C.2     1  UNL1        0.0816
@<TRIPOS>BOND
     1     6     7    2
     2     7     1    1
     3     1     2   ar
     4     2     3   ar
     5     3     4   ar
     6     4     5   ar
     7     5     1   ar
@<TRIPOS>MOLECULE
*****
 7 7 0 0 0
SMALL
GASTEIGER

@<TRIPOS>ATOM
      1 N          62.6553   83.2101   13.1558 N.ar    1  UNL1       -0.2850
      2 C          62.6207   82.0792   12.1711 C.ar    1  UNL1        0.1023
      3 C          62.5321   80.7956   12.9421 C.ar    1  UNL1        0.1196
      4 N          62.5119   81.1332   14.4035 N.ar    1  UNL1       -0.2220
      5 C          62.5881   82.6255   14.5355 C.ar    1  UNL1        0.1829
      6 C          62.3238   85.1527   11.4628 C.2     1  UNL1        0.0206
      7 C          62.7419   84.6694   12.8198 C.2     1  UNL1        0.0816
@<TRIPOS>BOND
     1     6     7    2
     2     7     1    1
     3     1     2   ar
     4     2     3   ar
     5     3     4   ar
     6     4     5   ar
     7     5     1   ar
@<TRIPOS>MOLECULE
*****
 7 7 0 0 0
SMALL
GASTEIGER

@<TRIPOS>ATOM
      1 N          63.3238   83.5475   12.4042 N.ar    1  UNL1       -0.2850
      2 C          62.9642   84.2636   11.1362 C.ar    1  UNL1        0.1023
      3 C          63.7725   83.6677   10.0220 C.ar    1  UNL1        0.1196
      4 N          64.6318   82.5833   10.6013 N.ar    1  UNL1       -0.2220
      5 C          64.3545   82.5090   12.0736 C.ar    1  UNL1        0.1829
      6 C          62.2917   82.6848   14.6269 C.2     1  UNL1        0.0206
      7 C          62.7531   83.8217   13.7640 C.2     1  UNL1        0.0816
@<TRIPOS>BOND
     1     6     7    2
     2     7     1    1
     3     1     2   ar
     4     2     3   ar
     5     3     4   ar
     6     4     5   ar
     7     5     1   ar
@<TRIPOS>MOLECULE
*****
 7 7 0 0 0
SMALL
GASTEIGER

@<TRIPOS>ATOM
      1 N          63.3356   84.9083   15.2237 N.ar    1  UNL1       -0.2850
      2 C          63.6207   85.1365   13.7688 C.ar    1  UNL1        0.1023
      3 C          63.1149   83.9484   13.0055 C.ar    1  UNL1        0.1196
      4 N          62.5171   82.9860   13.9886 N.ar    1  UNL1       -0.2220
      5 C          62.6536   83.5793   15.3595 C.ar    1  UNL1        0.1829
      6 C          62.6258   86.2175   17.3526 C.2     1  UNL1        0.0206
      7 C          63.6733   85.8448   16.3457 C.2     1  UNL1        0.0816
@<TRIPOS>BOND
     1     6     7    2
     2     7     1    1
     3     1     2   ar
     4     2     3   ar
     5     3     4   ar
     6     4     5   ar
     7     5     1   ar
@<TRIPOS>MOLECULE
*****
 7 7 0 0 0
SMALL
GASTEIGER

@<TRIPOS>ATOM
      1 N          62.7465   82.6089   12.7655 N.ar    1  UNL1       -0.2850
      2 C          63.4520   81.7444   11.7631 C.ar    1  UNL1        0.1023
      3 C          63.8467   82.6083   10.6021 C.ar    1  UNL1        0.1196
      4 N          63.3851   84.0068   10.8869 N.ar    1  UNL1       -0.2220
      5 C          62.7051   84.0071   12.2240 C.ar    1  UNL1        0.1829
      6 C          61.1806   81.0386   14.1189 C.2     1  UNL1        0.0206
      7 C          62.1815   82.1550   14.0788 C.2     1  UNL1        0.0816
@<TRIPOS>BOND
     1     6     7    2
     2     7     1    1
     3     1     2   ar
     4     2     3   ar
     5     3     4   ar
     6     4     5   ar
     7     5     1   ar
