@<TRIPOS>MOLECULE
*****
 30 32 0 0 0
SMALL
GASTEIGER

@<TRIPOS>ATOM
      1 C          64.9575   92.0169   12.6195 C.ar    1  UNL1        0.1724
      2 C          65.7294   91.7302   13.8732 C.ar    1  UNL1        0.0402
      3 C          65.4023   90.5187   14.6949 C.ar    1  UNL1        0.0078
      4 C          64.3033   89.5938   14.2629 C.ar    1  UNL1        0.0566
      5 C          63.5314   89.8805   13.0092 C.ar    1  UNL1        0.0446
      6 C          63.8585   91.0920   12.1875 C.ar    1  UNL1        0.1724
      7 C          63.9762   88.3823   15.0846 C.2     1  UNL1        0.2463
      8 O          63.2413   88.5330   16.3835 O.2     1  UNL1       -0.2701
      9 N          64.3840   87.0199   14.6074 N.am    1  UNL1       -0.2943
     10 H          64.8663   86.9210   13.7549 H       1  UNL1        0.1501
     11 C          64.0569   85.8084   15.4291 C.3     1  UNL1        0.1579
     12 C          63.8628   84.4793   14.7613 C.ar    1  UNL1        0.1738
     13 C          63.8183   84.2339   13.2822 C.ar    1  UNL1        0.0553
     14 C          63.6071   82.7653   13.0620 C.ar    1  UNL1        0.1000
     15 N          63.5210   82.1030   14.4052 N.ar    1  UNL1       -0.0817
     16 O          63.6791   83.1623   15.4554 O.2     1  UNL1       -0.3563
     17 C          63.5006   82.0794   11.7323 C.3     1  UNL1        0.0436
     18 C          62.8227   80.7453   11.6287 C.3     1  UNL1        0.0064
     19 C          64.0719   82.7276   10.5062 C.3     1  UNL1        0.0064
     20 C          66.3221   94.2007   12.2753 C.3     1  UNL1        0.2526
     21 O          65.2846   93.2284   11.7978 O.3     1  UNL1       -0.4684
     22 O          63.0864   91.3786   10.9337 O.3     1  UNL1       -0.4709
     23 C          62.6740   90.2524   10.0329 C.3     1  UNL1        0.2228
     24 C          61.2663   89.7359   10.0743 C.3     1  UNL1        0.1200
     25 N          60.8967   88.5034    9.3033 N.3     1  UNL1       -0.2696
     26 C          59.6958   88.5129    8.4047 C.3     1  UNL1        0.0722
     27 C          59.3261   87.2804    7.6337 C.3     1  UNL1        0.0174
     28 C          60.1575   86.0384    7.7614 C.3     1  UNL1        0.0029
     29 C          61.3585   86.0289    8.6601 C.3     1  UNL1        0.0174
     30 C          61.7281   87.2614    9.4310 C.3     1  UNL1        0.0722
@<TRIPOS>BOND
     1    20    21    1
     2    21     1    1
     3     1     2   ar
     4     2     3   ar
     5     3     4   ar
     6     4     7    1
     7     7     8    2
     8     7     9   am
     9     9    11    1
    10    11    12    1
    11    12    13   ar
    12    13    14   ar
    13    14    17    1
    14    17    18    1
    15    17    19    1
    16    14    15   ar
    17    15    16   ar
    18     4     5   ar
    19     5     6   ar
    20     6    22    1
    21    22    23    1
    22    23    24    1
    23    24    25    1
    24    25    26    1
    25    26    27    1
    26    27    28    1
    27    28    29    1
    28    29    30    1
    29     6     1   ar
    30    30    25    1
    31    16    12   ar
    32     9    10    1
@<TRIPOS>MOLECULE
*****
 30 32 0 0 0
SMALL
GASTEIGER

@<TRIPOS>ATOM
      1 C          63.2992   82.4942   11.9365 C.ar    1  UNL1        0.1724
      2 C          63.6284   82.8907   10.5279 C.ar    1  UNL1        0.0402
      3 C          63.2971   84.2699   10.0400 C.ar    1  UNL1        0.0078
      4 C          62.6367   85.2526   10.9609 C.ar    1  UNL1        0.0566
      5 C          62.3075   84.8561   12.3696 C.ar    1  UNL1        0.0446
      6 C          62.6388   83.4769   12.8574 C.ar    1  UNL1        0.1724
      7 C          62.3054   86.6319   10.4731 C.2     1  UNL1        0.2463
      8 O          62.3749   86.9461    9.0081 O.2     1  UNL1       -0.2701
      9 N          61.9046   87.6969   11.4503 N.am    1  UNL1       -0.2943
     10 H          61.8590   87.4907   12.4119 H       1  UNL1        0.1501
     11 C          61.5733   89.0761   10.9625 C.3     1  UNL1        0.1579
     12 C          62.6068   90.1616   11.0236 C.ar    1  UNL1        0.1738
     13 C          63.4945   90.4691   12.1930 C.ar    1  UNL1        0.0553
     14 C          64.3703   91.6277   11.8182 C.ar    1  UNL1        0.1000
     15 N          64.0240   92.0363   10.4170 N.ar    1  UNL1       -0.0817
     16 O          62.9341   91.1302    9.9260 O.2     1  UNL1       -0.3563
     17 C          65.4100   92.2657   12.6911 C.3     1  UNL1        0.0436
     18 C          66.0373   93.5655   12.2827 C.3     1  UNL1        0.0064
     19 C          65.8222   91.6038   13.9725 C.3     1  UNL1        0.0064
     20 C          62.5294   80.1608   12.7806 C.3     1  UNL1        0.2526
     21 O          63.6305   81.1149   12.4243 O.3     1  UNL1       -0.4684
     22 O          62.3097   83.0804   14.2662 O.3     1  UNL1       -0.4709
     23 C          63.1738   83.5498   15.3988 C.3     1  UNL1        0.2228
     24 C          64.1731   84.6460   15.1753 C.3     1  UNL1        0.1200
     25 N          63.8681   86.0429   15.6289 N.3     1  UNL1       -0.2696
     26 C          63.1376   86.2697   16.9192 C.3     1  UNL1        0.0722
     27 C          62.8325   87.6666   17.3728 C.3     1  UNL1        0.0174
     28 C          63.2580   88.8366   16.5362 C.3     1  UNL1        0.0029
     29 C          63.9886   88.6097   15.2458 C.3     1  UNL1        0.0174
     30 C          64.2936   87.2129   14.7922 C.3     1  UNL1        0.0722
@<TRIPOS>BOND
     1    20    21    1
     2    21     1    1
     3     1     2   ar
     4     2     3   ar
     5     3     4   ar
     6     4     7    1
     7     7     8    2
     8     7     9   am
     9     9    11    1
    10    11    12    1
    11    12    13   ar
    12    13    14   ar
    13    14    17    1
    14    17    18    1
    15    17    19    1
    16    14    15   ar
    17    15    16   ar
    18     4     5   ar
    19     5     6   ar
    20     6    22    1
    21    22    23    1
    22    23    24    1
    23    24    25    1
    24    25    26    1
    25    26    27    1
    26    27    28    1
    27    28    29    1
    28    29    30    1
    29     6     1   ar
    30    30    25    1
    31    16    12   ar
    32     9    10    1
@<TRIPOS>MOLECULE
*****
 30 32 0 0 0
SMALL
GASTEIGER

@<TRIPOS>ATOM
      1 C          60.6957   87.9948    9.9284 C.ar    1  UNL1        0.1724
      2 C          60.7252   89.3208    9.2280 C.ar    1  UNL1        0.0402
      3 C          61.6611   90.3956    9.6960 C.ar    1  UNL1        0.0078
      4 C          62.5675   90.1442   10.8644 C.ar    1  UNL1        0.0566
      5 C          62.5379   88.8182   11.5648 C.ar    1  UNL1        0.0446
      6 C          61.6020   87.7434   11.0968 C.ar    1  UNL1        0.1724
      7 C          63.5034   91.2190   11.3324 C.2     1  UNL1        0.2463
      8 O          63.6076   91.5384   12.7943 O.2     1  UNL1       -0.2701
      9 N          64.3351   91.9743   10.3386 N.am    1  UNL1       -0.2943
     10 H          64.2667   91.7646    9.3791 H       1  UNL1        0.1501
     11 C          65.2710   93.0490   10.8066 C.3     1  UNL1        0.1579
     12 C          66.3059   92.7411   11.8479 C.ar    1  UNL1        0.1738
     13 C          66.1789   92.9979   13.3203 C.ar    1  UNL1        0.0553
     14 C          67.4440   92.5379   13.9819 C.ar    1  UNL1        0.1000
     15 N          68.3529   91.9966   12.9184 N.ar    1  UNL1       -0.0817
     16 O          67.6495   92.1222   11.5996 O.2     1  UNL1       -0.3563
     17 C          67.7470   92.6069   15.4494 C.3     1  UNL1        0.0436
     18 C          69.1700   92.6746   15.9190 C.3     1  UNL1        0.0064
     19 C          66.6270   92.6082   16.4472 C.3     1  UNL1        0.0064
     20 C          59.3818   86.8334    8.0114 C.3     1  UNL1        0.2526
     21 O          59.7598   86.9200    9.4604 O.3     1  UNL1       -0.4684
     22 O          61.5725   86.4173   11.7973 O.3     1  UNL1       -0.4709
     23 C          62.8352   85.6225   11.9517 C.3     1  UNL1        0.2228
     24 C          63.0563   84.7980   13.1852 C.3     1  UNL1        0.1200
     25 N          62.8029   83.3199   13.1547 N.3     1  UNL1       -0.2696
     26 C          63.1938   82.5167   11.9498 C.3     1  UNL1        0.0722
     27 C          62.9404   81.0385   11.9192 C.3     1  UNL1        0.0174
     28 C          62.2960   80.3636   13.0937 C.3     1  UNL1        0.0029
     29 C          61.9051   81.1669   14.2987 C.3     1  UNL1        0.0174
     30 C          62.1585   82.6450   14.3292 C.3     1  UNL1        0.0722
@<TRIPOS>BOND
     1    20    21    1
     2    21     1    1
     3     1     2   ar
     4     2     3   ar
     5     3     4   ar
     6     4     7    1
     7     7     8    2
     8     7     9   am
     9     9    11    1
    10    11    12    1
    11    12    13   ar
    12    13    14   ar
    13    14    17    1
    14    17    18    1
    15    17    19    1
    16    14    15   ar
    17    15    16   ar
    18     4     5   ar
    19     5     6   ar
    20     6    22    1
    21    22    23    1
    22    23    24    1
    23    24    25    1
    24    25    26    1
    25    26    27    1
    26    27    28    1
    27    28    29    1
    28    29    30    1
    29     6     1   ar
    30    30    25    1
    31    16    12   ar
    32     9    10    1
@<TRIPOS>MOLECULE
*****
 30 32 0 0 0
SMALL
GASTEIGER

@<TRIPOS>ATOM
      1 C          65.4748   91.6328   14.4604 C.ar    1  UNL1        0.1724
      2 C          65.7179   92.1450   13.0717 C.ar    1  UNL1        0.0402
      3 C          64.7448   91.8295   11.9748 C.ar    1  UNL1        0.0078
      4 C          63.5284   91.0016   12.2665 C.ar    1  UNL1        0.0566
      5 C          63.2853   90.4894   13.6551 C.ar    1  UNL1        0.0446
      6 C          64.2585   90.8049   14.7521 C.ar    1  UNL1        0.1724
      7 C          62.5552   90.6860   11.1695 C.2     1  UNL1        0.2463
      8 O          62.8236   91.1561    9.7706 O.2     1  UNL1       -0.2701
      9 N          61.3137   89.9004   11.4715 N.am    1  UNL1       -0.2943
     10 H          61.1375   89.5918   12.3896 H       1  UNL1        0.1501
     11 C          60.3405   89.5848   10.3745 C.3     1  UNL1        0.1579
     12 C          60.4980   88.3281    9.5707 C.ar    1  UNL1        0.1738
     13 C          61.7437   87.4991    9.4656 C.ar    1  UNL1        0.0553
     14 C          61.4531   86.3385    8.5609 C.ar    1  UNL1        0.1000
     15 N          60.0278   86.4501    8.1069 N.ar    1  UNL1       -0.0817
     16 O          59.4375   87.6798    8.7311 O.2     1  UNL1       -0.3563
     17 C          62.4183   85.2562    8.1775 C.3     1  UNL1        0.0436
     18 C          63.3475   84.6813    9.2052 C.3     1  UNL1        0.0064
     19 C          62.4543   84.7487    6.7664 C.3     1  UNL1        0.0064
     20 C          67.2969   93.1823   15.4748 C.3     1  UNL1        0.2526
     21 O          66.4480   91.9484   15.5574 O.3     1  UNL1       -0.4684
     22 O          64.0152   90.2926   16.1408 O.3     1  UNL1       -0.4709
     23 C          62.8673   89.3648   16.4076 C.3     1  UNL1        0.2228
     24 C          63.1086   88.0488   17.0859 C.3     1  UNL1        0.1200
     25 N          63.2703   86.8019   16.2679 N.3     1  UNL1       -0.2696
     26 C          62.4603   85.5819   16.5922 C.3     1  UNL1        0.0722
     27 C          62.6220   84.3349   15.7742 C.3     1  UNL1        0.0174
     28 C          63.5938   84.3082   14.6318 C.3     1  UNL1        0.0029
     29 C          64.4038   85.5284   14.3075 C.3     1  UNL1        0.0174
     30 C          64.2420   86.7752   15.1255 C.3     1  UNL1        0.0722
@<TRIPOS>BOND
     1    20    21    1
     2    21     1    1
     3     1     2   ar
     4     2     3   ar
     5     3     4   ar
     6     4     7    1
     7     7     8    2
     8     7     9   am
     9     9    11    1
    10    11    12    1
    11    12    13   ar
    12    13    14   ar
    13    14    17    1
    14    17    18    1
    15    17    19    1
    16    14    15   ar
    17    15    16   ar
    18     4     5   ar
    19     5     6   ar
    20     6    22    1
    21    22    23    1
    22    23    24    1
    23    24    25    1
    24    25    26    1
    25    26    27    1
    26    27    28    1
    27    28    29    1
    28    29    30    1
    29     6     1   ar
    30    30    25    1
    31    16    12   ar
    32     9    10    1
@<TRIPOS>MOLECULE
*****
 30 32 0 0 0
SMALL
GASTEIGER

@<TRIPOS>ATOM
      1 C          60.7420   86.0311    7.8291 C.ar    1  UNL1        0.1724
      2 C          59.8052   87.2025    7.8144 C.ar    1  UNL1        0.0402
      3 C          60.0390   88.3616    8.7373 C.ar    1  UNL1        0.0078
      4 C          61.2097   88.3493    9.6750 C.ar    1  UNL1        0.0566
      5 C          62.1466   87.1779    9.6897 C.ar    1  UNL1        0.0446
      6 C          61.9127   86.0188    8.7667 C.ar    1  UNL1        0.1724
      7 C          61.4436   89.5083   10.5980 C.2     1  UNL1        0.2463
      8 O          60.3307   90.4703   10.8908 O.2     1  UNL1       -0.2701
      9 N          62.7905   89.7054   11.2281 N.am    1  UNL1       -0.2943
     10 H          63.5210   89.0740   11.0359 H       1  UNL1        0.1501
     11 C          63.0244   90.8644   12.1511 C.3     1  UNL1        0.1579
     12 C          64.2728   91.6860   12.0219 C.ar    1  UNL1        0.1738
     13 C          65.0062   91.9810   10.7471 C.ar    1  UNL1        0.0553
     14 C          66.1936   92.8340   11.0822 C.ar    1  UNL1        0.1000
     15 N          66.1941   93.0662   12.5641 N.ar    1  UNL1       -0.0817
     16 O          65.0070   92.3567   13.1449 O.2     1  UNL1       -0.3563
     17 C          67.2032   93.3621   10.1066 C.3     1  UNL1        0.0436
     18 C          67.1938   94.8140    9.7296 C.3     1  UNL1        0.0064
     19 C          68.2223   92.4384    9.5081 C.3     1  UNL1        0.0064
     20 C          61.5740   84.4601    5.9345 C.3     1  UNL1        0.2526
     21 O          60.5081   84.8721    6.9061 O.3     1  UNL1       -0.4684
     22 O          62.8496   84.8474    8.7815 O.3     1  UNL1       -0.4709
     23 C          63.5195   84.4389   10.0598 C.3     1  UNL1        0.2228
     24 C          63.7246   82.9852   10.3679 C.3     1  UNL1        0.1200
     25 N          63.1851   82.4051   11.6416 N.3     1  UNL1       -0.2696
     26 C          62.9082   83.2984   12.8143 C.3     1  UNL1        0.0722
     27 C          62.3687   82.7183   14.0881 C.3     1  UNL1        0.0174
     28 C          62.1062   81.2449   14.1891 C.3     1  UNL1        0.0029
     29 C          62.3831   80.3516   13.0163 C.3     1  UNL1        0.0174
     30 C          62.9226   80.9317   11.7426 C.3     1  UNL1        0.0722
@<TRIPOS>BOND
     1    20    21    1
     2    21     1    1
     3     1     2   ar
     4     2     3   ar
     5     3     4   ar
     6     4     7    1
     7     7     8    2
     8     7     9   am
     9     9    11    1
    10    11    12    1
    11    12    13   ar
    12    13    14   ar
    13    14    17    1
    14    17    18    1
    15    17    19    1
    16    14    15   ar
    17    15    16   ar
    18     4     5   ar
    19     5     6   ar
    20     6    22    1
    21    22    23    1
    22    23    24    1
    23    24    25    1
    24    25    26    1
    25    26    27    1
    26    27    28    1
    27    28    29    1
    28    29    30    1
    29     6     1   ar
    30    30    25    1
    31    16    12   ar
    32     9    10    1
@<TRIPOS>MOLECULE
*****
 30 32 0 0 0
SMALL
GASTEIGER

@<TRIPOS>ATOM
      1 C          61.0015   87.0490    9.3947 C.ar    1  UNL1        0.1724
      2 C          60.9889   88.5477    9.3336 C.ar    1  UNL1        0.0402
      3 C          61.7454   89.3462   10.3534 C.ar    1  UNL1        0.0078
      4 C          62.5145   88.6461   11.4343 C.ar    1  UNL1        0.0566
      5 C          62.5271   87.1474   11.4953 C.ar    1  UNL1        0.0446
      6 C          61.7705   86.3489   10.4755 C.ar    1  UNL1        0.1724
      7 C          63.2710   89.4447   12.4541 C.2     1  UNL1        0.2463
      8 O          63.3920   88.9411   13.8618 O.2     1  UNL1       -0.2701
      9 N          63.9064   90.7468   12.0662 N.am    1  UNL1       -0.2943
     10 H          63.8270   91.0774   11.1422 H       1  UNL1        0.1501
     11 C          64.6630   91.5454   13.0860 C.3     1  UNL1        0.1579
     12 C          65.3857   92.7940   12.6752 C.ar    1  UNL1        0.1738
     13 C          65.6942   93.2118   11.2680 C.ar    1  UNL1        0.0553
     14 C          66.4259   94.5200   11.3226 C.ar    1  UNL1        0.1000
     15 N          66.5697   94.9108   12.7637 N.ar    1  UNL1       -0.0817
     16 O          65.9268   93.8441   13.5996 O.2     1  UNL1       -0.3563
     17 C          66.9261   95.3004   10.1433 C.3     1  UNL1        0.0436
     18 C          67.7600   94.6243    9.0956 C.3     1  UNL1        0.0064
     19 C          66.5924   96.7569   10.0117 C.3     1  UNL1        0.0064
     20 C          58.9952   86.8089    7.7615 C.3     1  UNL1        0.2526
     21 O          60.2450   86.2504    8.3749 O.3     1  UNL1       -0.4684
     22 O          61.7832   84.8501   10.5366 O.3     1  UNL1       -0.4709
     23 C          62.9178   84.1365   11.2098 C.3     1  UNL1        0.2228
     24 C          62.7128   83.5013   12.5532 C.3     1  UNL1        0.1200
     25 N          63.0497   84.2616   13.8015 N.3     1  UNL1       -0.2696
     26 C          64.2796   85.1189   13.8486 C.3     1  UNL1        0.0722
     27 C          64.6165   85.8793   15.0970 C.3     1  UNL1        0.0174
     28 C          63.7234   85.7823   16.2982 C.3     1  UNL1        0.0029
     29 C          62.4934   84.9249   16.2511 C.3     1  UNL1        0.0174
     30 C          62.1566   84.1646   15.0028 C.3     1  UNL1        0.0722
@<TRIPOS>BOND
     1    20    21    1
     2    21     1    1
     3     1     2   ar
     4     2     3   ar
     5     3     4   ar
     6     4     7    1
     7     7     8    2
     8     7     9   am
     9     9    11    1
    10    11    12    1
    11    12    13   ar
    12    13    14   ar
    13    14    17    1
    14    17    18    1
    15    17    19    1
    16    14    15   ar
    17    15    16   ar
    18     4     5   ar
    19     5     6   ar
    20     6    22    1
    21    22    23    1
    22    23    24    1
    23    24    25    1
    24    25    26    1
    25    26    27    1
    26    27    28    1
    27    28    29    1
    28    29    30    1
    29     6     1   ar
    30    30    25    1
    31    16    12   ar
    32     9    10    1
@<TRIPOS>MOLECULE
*****
 30 32 0 0 0
SMALL
GASTEIGER

@<TRIPOS>ATOM
      1 C          60.9489   86.8591    9.5304 C.ar    1  UNL1        0.1724
      2 C          60.7676   88.3440    9.6398 C.ar    1  UNL1        0.0402
      3 C          61.5579   89.1237   10.6486 C.ar    1  UNL1        0.0078
      4 C          62.5294   88.4185   11.5479 C.ar    1  UNL1        0.0566
      5 C          62.7107   86.9336   11.4384 C.ar    1  UNL1        0.0446
      6 C          61.9205   86.1538   10.4297 C.ar    1  UNL1        0.1724
      7 C          63.3196   89.1982   12.5566 C.2     1  UNL1        0.2463
      8 O          63.6011   88.6089   13.9069 O.2     1  UNL1       -0.2701
      9 N          63.8284   90.5673   12.2150 N.am    1  UNL1       -0.2943
     10 H          63.6437   90.9542   11.3288 H       1  UNL1        0.1501
     11 C          64.6186   91.3470   13.2238 C.3     1  UNL1        0.1579
     12 C          65.3362   92.5977   12.8102 C.ar    1  UNL1        0.1738
     13 C          65.6506   93.0092   11.4024 C.ar    1  UNL1        0.0553
     14 C          66.3740   94.3223   11.4539 C.ar    1  UNL1        0.1000
     15 N          66.5065   94.7223   12.8935 N.ar    1  UNL1       -0.0817
     16 O          65.8651   93.6565   13.7317 O.2     1  UNL1       -0.3563
     17 C          66.8765   95.0989   10.2731 C.3     1  UNL1        0.0436
     18 C          66.7012   96.5879   10.2251 C.3     1  UNL1        0.0064
     19 C          67.5544   94.3866    9.1404 C.3     1  UNL1        0.0064
     20 C          59.0351   86.7379    7.7775 C.3     1  UNL1        0.2526
     21 O          60.1587   86.0793    8.5216 O.3     1  UNL1       -0.4684
     22 O          62.1018   84.6688   10.3202 O.3     1  UNL1       -0.4709
     23 C          63.4613   84.0975   10.0458 C.3     1  UNL1        0.2228
     24 C          64.1747   83.3154   11.1087 C.3     1  UNL1        0.1200
     25 N          63.3912   82.6295   12.1883 N.3     1  UNL1       -0.2696
     26 C          63.0003   81.1898   12.0319 C.3     1  UNL1        0.0722
     27 C          62.2168   80.5038   13.1115 C.3     1  UNL1        0.0174
     28 C          61.8243   81.2575   14.3476 C.3     1  UNL1        0.0029
     29 C          62.2152   82.6972   14.5040 C.3     1  UNL1        0.0174
     30 C          62.9987   83.3832   13.4244 C.3     1  UNL1        0.0722
@<TRIPOS>BOND
     1    20    21    1
     2    21     1    1
     3     1     2   ar
     4     2     3   ar
     5     3     4   ar
     6     4     7    1
     7     7     8    2
     8     7     9   am
     9     9    11    1
    10    11    12    1
    11    12    13   ar
    12    13    14   ar
    13    14    17    1
    14    17    18    1
    15    17    19    1
    16    14    15   ar
    17    15    16   ar
    18     4     5   ar
    19     5     6   ar
    20     6    22    1
    21    22    23    1
    22    23    24    1
    23    24    25    1
    24    25    26    1
    25    26    27    1
    26    27    28    1
    27    28    29    1
    28    29    30    1
    29     6     1   ar
    30    30    25    1
    31    16    12   ar
    32     9    10    1
@<TRIPOS>MOLECULE
*****
 30 32 0 0 0
SMALL
GASTEIGER

@<TRIPOS>ATOM
      1 C          63.2282   87.7935   16.1550 C.ar    1  UNL1        0.1724
      2 C          63.0988   89.1008   16.8788 C.ar    1  UNL1        0.0402
      3 C          63.6383   90.3568   16.2611 C.ar    1  UNL1        0.0078
      4 C          64.3071   90.3054   14.9195 C.ar    1  UNL1        0.0566
      5 C          64.4365   88.9980   14.1956 C.ar    1  UNL1        0.0446
      6 C          63.8970   87.7421   14.8133 C.ar    1  UNL1        0.1724
      7 C          64.8466   91.5613   14.3018 C.2     1  UNL1        0.2463
      8 O          64.2938   92.0526   12.9968 O.2     1  UNL1       -0.2701
      9 N          65.9388   92.3259   14.9890 N.am    1  UNL1       -0.2943
     10 H          66.3017   92.0034   15.8455 H       1  UNL1        0.1501
     11 C          66.4783   93.5818   14.3712 C.3     1  UNL1        0.1579
     12 C          66.7384   93.6398   12.8950 C.ar    1  UNL1        0.1738
     13 C          66.3366   94.7519   11.9720 C.ar    1  UNL1        0.0553
     14 C          66.7958   94.3953   10.5893 C.ar    1  UNL1        0.1000
     15 N          67.4813   93.0628   10.6577 N.ar    1  UNL1       -0.0817
     16 O          67.4458   92.5959   12.0828 O.2     1  UNL1       -0.3563
     17 C          66.6033   95.2254    9.3548 C.3     1  UNL1        0.0436
     18 C          67.2326   94.8021    8.0607 C.3     1  UNL1        0.0064
     19 C          65.7814   96.4788    9.4145 C.3     1  UNL1        0.0064
     20 C          62.6238   86.4038   18.2653 C.3     1  UNL1        0.2526
     21 O          62.6887   86.5375   16.7727 O.3     1  UNL1       -0.4684
     22 O          64.0264   86.4347   14.0894 O.3     1  UNL1       -0.4709
     23 C          64.8888   85.3459   14.6558 C.3     1  UNL1        0.2228
     24 C          64.3170   83.9778   14.8828 C.3     1  UNL1        0.1200
     25 N          63.9176   83.1283   13.7129 N.3     1  UNL1       -0.2696
     26 C          63.1221   81.8757   13.9324 C.3     1  UNL1        0.0722
     27 C          62.7227   81.0261   12.7625 C.3     1  UNL1        0.0174
     28 C          63.1188   81.4291   11.3730 C.3     1  UNL1        0.0029
     29 C          63.9144   82.6817   11.1535 C.3     1  UNL1        0.0174
     30 C          64.3137   83.5313   12.3234 C.3     1  UNL1        0.0722
@<TRIPOS>BOND
     1    20    21    1
     2    21     1    1
     3     1     2   ar
     4     2     3   ar
     5     3     4   ar
     6     4     7    1
     7     7     8    2
     8     7     9   am
     9     9    11    1
    10    11    12    1
    11    12    13   ar
    12    13    14   ar
    13    14    17    1
    14    17    18    1
    15    17    19    1
    16    14    15   ar
    17    15    16   ar
    18     4     5   ar
    19     5     6   ar
    20     6    22    1
    21    22    23    1
    22    23    24    1
    23    24    25    1
    24    25    26    1
    25    26    27    1
    26    27    28    1
    27    28    29    1
    28    29    30    1
    29     6     1   ar
    30    30    25    1
    31    16    12   ar
    32     9    10    1
@<TRIPOS>MOLECULE
*****
 30 32 0 0 0
SMALL
GASTEIGER

@<TRIPOS>ATOM
      1 C          64.2602   83.7956   13.0840 C.ar    1  UNL1        0.1724
      2 C          65.0519   84.1786   14.2991 C.ar    1  UNL1        0.0402
      3 C          64.9369   85.5636   14.8634 C.ar    1  UNL1        0.0078
      4 C          64.0302   86.5657   14.2126 C.ar    1  UNL1        0.0566
      5 C          63.2385   86.1828   12.9975 C.ar    1  UNL1        0.0446
      6 C          63.3535   84.7977   12.4332 C.ar    1  UNL1        0.1724
      7 C          63.9152   87.9508   14.7769 C.2     1  UNL1        0.2463
      8 O          63.5043   88.1466   16.2061 O.2     1  UNL1       -0.2701
      9 N          64.2111   89.1400   13.9119 N.am    1  UNL1       -0.2943
     10 H          64.4808   89.0114   12.9738 H       1  UNL1        0.1501
     11 C          64.0960   90.5250   14.4762 C.3     1  UNL1        0.1579
     12 C          64.8658   91.6536   13.8566 C.ar    1  UNL1        0.1738
     13 C          65.0216   91.9127   12.3874 C.ar    1  UNL1        0.0553
     14 C          65.8670   93.1404   12.2202 C.ar    1  UNL1        0.1000
     15 N          66.2338   93.6401   13.5861 N.ar    1  UNL1       -0.0817
     16 O          65.6150   92.7212   14.5975 O.2     1  UNL1       -0.3563
     17 C          66.2742   93.7596   10.9161 C.3     1  UNL1        0.0436
     18 C          65.7851   95.1300   10.5514 C.3     1  UNL1        0.0064
     19 C          67.1704   93.0085    9.9766 C.3     1  UNL1        0.0064
     20 C          63.8138   81.2434   13.2764 C.3     1  UNL1        0.2526
     21 O          64.3753   82.4106   12.5198 O.3     1  UNL1       -0.4684
     22 O          62.5618   84.4148   11.2180 O.3     1  UNL1       -0.4709
     23 C          62.3943   85.3928   10.0932 C.3     1  UNL1        0.2228
     24 C          61.1396   86.2083    9.9889 C.3     1  UNL1        0.1200
     25 N          61.1542   87.6590   10.3700 N.3     1  UNL1       -0.2696
     26 C          62.3083   88.5285    9.9675 C.3     1  UNL1        0.0722
     27 C          62.3230   89.9793   10.3486 C.3     1  UNL1        0.0174
     28 C          61.1835   90.5605   11.1321 C.3     1  UNL1        0.0029
     29 C          60.0294   89.6908   11.5346 C.3     1  UNL1        0.0174
     30 C          60.0148   88.2402   11.1535 C.3     1  UNL1        0.0722
@<TRIPOS>BOND
     1    20    21    1
     2    21     1    1
     3     1     2   ar
     4     2     3   ar
     5     3     4   ar
     6     4     7    1
     7     7     8    2
     8     7     9   am
     9     9    11    1
    10    11    12    1
    11    12    13   ar
    12    13    14   ar
    13    14    17    1
    14    17    18    1
    15    17    19    1
    16    14    15   ar
    17    15    16   ar
    18     4     5   ar
    19     5     6   ar
    20     6    22    1
    21    22    23    1
    22    23    24    1
    23    24    25    1
    24    25    26    1
    25    26    27    1
    26    27    28    1
    27    28    29    1
    28    29    30    1
    29     6     1   ar
    30    30    25    1
    31    16    12   ar
    32     9    10    1
