@<TRIPOS>MOLECULE
*****
 29 32 0 0 0
SMALL
GASTEIGER

@<TRIPOS>ATOM
      1 C          63.9507   90.2209   15.1205 C.2     1  UNL1        0.3270
      2 N          64.8816   91.1239   15.8741 N.2     1  UNL1       -0.0380
      3 C          65.5368   92.0430   14.8860 C.2     1  UNL1        0.2637
      4 C          66.5444   93.1416   15.0523 C.2     1  UNL1        0.2821
      5 N          67.0260   93.9052   13.8544 N.2     1  UNL1       -0.0268
      6 C          66.5000   93.5702   12.4902 C.2     1  UNL1        0.3760
      7 N          66.7870   94.1450   11.1348 N.2     1  UNL1       -0.0306
      8 C          65.9567   93.4016   10.1308 C.2     1  UNL1        0.2361
      9 C          65.1566   92.3673   10.8657 C.2     1  UNL1        0.0583
     10 C          65.4924   92.4715   12.3240 C.2     1  UNL1        0.1203
     11 C          65.0108   91.7079   13.5219 C.3     1  UNL1        0.2596
     12 N          64.0305   90.5818   13.6668 N.pl3   1  UNL1       -0.1887
     13 C          63.2645   89.9309   12.5534 C.3     1  UNL1        0.1606
     14 C          62.4328   90.7669   11.6264 C.3     1  UNL1        0.0480
     15 C          61.6668   90.1159   10.5130 C.3     1  UNL1        0.0198
     16 C          61.7326   88.6290   10.3267 C.3     1  UNL1        0.0545
     17 C          62.5643   87.7930   11.2537 C.3     1  UNL1        0.0198
     18 C          63.3303   88.4439   12.3671 C.3     1  UNL1        0.0480
     19 N          60.9666   87.9781    9.2133 N.3     1  UNL1       -0.2914
     20 H          61.3881   88.2963    8.3407 H       1  UNL1        0.1235
     21 C          60.8839   86.4825    9.1342 C.3     1  UNL1        0.1731
     22 C          61.4138   85.7648    7.9282 C.3     1  UNL1        0.4118
     23 F          61.9435   85.0472    6.7222 F       1  UNL1       -0.1685
     24 F          60.0109   85.5273    7.4533 F       1  UNL1       -0.1685
     25 F          62.8167   86.0023    8.4031 F       1  UNL1       -0.1685
     26 C          63.6585   87.7780   15.9553 C.3     1  UNL1        0.0450
     27 C          63.0909   89.1458   15.7161 C.3     1  UNL1        0.2165
     28 O          61.6636   89.4383   16.0726 O.3     1  UNL1       -0.3737
     29 H          61.4588   90.3613   15.8556 H       1  UNL1        0.2111
@<TRIPOS>BOND
     1    27    26    1
     2    27    28    1
     3    27     1    1
     4     1     2    2
     5     2     3    1
     6     3     4    2
     7     4     5    1
     8     5     6    2
     9     6     7    1
    10     7     8    2
    11     8     9    1
    12     9    10    2
    13    10    11    1
    14    11    12    1
    15    13    12    1
    16    13    14    1
    17    14    15    1
    18    15    16    1
    19    16    19    1
    20    19    21    1
    21    21    22    1
    22    22    23    1
    23    22    24    1
    24    22    25    1
    25    16    17    1
    26    17    18    1
    27    12     1    1
    28    18    13    1
    29    11     3    1
    30    10     6    1
    31    28    29    1
    32    19    20    1
@<TRIPOS>MOLECULE
*****
 29 32 0 0 0
SMALL
GASTEIGER

@<TRIPOS>ATOM
      1 C          61.1076   87.1052    8.8829 C.2     1  UNL1        0.3270
      2 N          60.8221   88.5741    8.7791 N.2     1  UNL1       -0.0380
      3 C          61.4731   89.2565    9.9456 C.2     1  UNL1        0.2637
      4 C          61.5285   90.6960   10.3633 C.2     1  UNL1        0.2821
      5 N          62.2717   91.0885   11.6058 N.2     1  UNL1       -0.0268
      6 C          62.9595   90.0412   12.4305 C.2     1  UNL1        0.3760
      7 N          63.7624   90.1265   13.6947 N.2     1  UNL1       -0.0306
      8 C          64.2032   88.7397   14.0582 C.2     1  UNL1        0.2361
      9 C          63.6729   87.7972   13.0187 C.2     1  UNL1        0.0583
     10 C          62.9042   88.6016   12.0128 C.2     1  UNL1        0.1203
     11 C          62.1610   88.2093   10.7703 C.3     1  UNL1        0.2596
     12 N          61.9351   86.8797   10.1135 N.pl3   1  UNL1       -0.1887
     13 C          62.4468   85.5569   10.6017 C.3     1  UNL1        0.1606
     14 C          62.0781   85.0693   11.9715 C.3     1  UNL1        0.0480
     15 C          62.5899   83.7464   12.4596 C.3     1  UNL1        0.0198
     16 C          63.4703   82.9113   11.5779 C.3     1  UNL1        0.0545
     17 C          63.8390   83.3989   10.2082 C.3     1  UNL1        0.0198
     18 C          63.3273   84.7217    9.7200 C.3     1  UNL1        0.0480
     19 N          63.9820   81.5885   12.0661 N.3     1  UNL1       -0.2914
     20 H          65.0001   81.6503   12.0712 H       1  UNL1        0.1235
     21 C          63.5725   81.0776   13.4156 C.3     1  UNL1        0.1731
     22 C          62.1939   80.5230   13.6209 C.3     1  UNL1        0.4118
     23 F          60.8154   79.9685   13.8263 F       1  UNL1       -0.1685
     24 F          61.9658   81.5022   14.7340 F       1  UNL1       -0.1685
     25 F          62.4221   79.5437   12.5078 F       1  UNL1       -0.1685
     26 C          61.6522   85.2168    7.1837 C.3     1  UNL1        0.0450
     27 C          60.6466   86.0476    7.9244 C.3     1  UNL1        0.2165
     28 O          59.1800   85.8207    7.7066 O.3     1  UNL1       -0.3737
     29 H          58.6721   86.4365    8.2578 H       1  UNL1        0.2111
@<TRIPOS>BOND
     1    27    26    1
     2    27    28    1
     3    27     1    1
     4     1     2    2
     5     2     3    1
     6     3     4    2
     7     4     5    1
     8     5     6    2
     9     6     7    1
    10     7     8    2
    11     8     9    1
    12     9    10    2
    13    10    11    1
    14    11    12    1
    15    13    12    1
    16    13    14    1
    17    14    15    1
    18    15    16    1
    19    16    19    1
    20    19    21    1
    21    21    22    1
    22    22    23    1
    23    22    24    1
    24    22    25    1
    25    16    17    1
    26    17    18    1
    27    12     1    1
    28    18    13    1
    29    11     3    1
    30    10     6    1
    31    28    29    1
    32    19    20    1
@<TRIPOS>MOLECULE
*****
 29 32 0 0 0
SMALL
GASTEIGER

@<TRIPOS>ATOM
      1 C          63.1110   90.6455   11.6924 C.2     1  UNL1        0.3270
      2 N          63.6443   91.7621   10.8447 N.2     1  UNL1       -0.0380
      3 C          64.8484   92.3328   11.5336 C.2     1  UNL1        0.2637
      4 C          65.7800   93.4493   11.1657 C.2     1  UNL1        0.2821
      5 N          66.9226   93.8020   12.0715 N.2     1  UNL1       -0.0268
      6 C          67.1334   93.0380   13.3450 C.2     1  UNL1        0.3760
      7 N          68.1645   93.1572   14.4279 N.2     1  UNL1       -0.0306
      8 C          67.8700   92.1143   15.4650 C.2     1  UNL1        0.2361
      9 C          66.6570   91.3505   15.0231 C.2     1  UNL1        0.0583
     10 C          66.2018   91.9214   13.7128 C.2     1  UNL1        0.1203
     11 C          65.0593   91.5688   12.8071 C.3     1  UNL1        0.2596
     12 N          63.9855   90.5260   12.9053 N.pl3   1  UNL1       -0.1887
     13 C          63.8160   89.5373   14.0205 C.3     1  UNL1        0.1606
     14 C          63.2126   89.9722   15.3231 C.3     1  UNL1        0.0480
     15 C          63.0430   88.9835   16.4383 C.3     1  UNL1        0.0198
     16 C          63.4769   87.5599   16.2510 C.3     1  UNL1        0.0545
     17 C          64.0804   87.1250   14.9484 C.3     1  UNL1        0.0198
     18 C          64.2499   88.1137   13.8332 C.3     1  UNL1        0.0480
     19 N          63.3074   86.5713   17.3662 N.3     1  UNL1       -0.2914
     20 H          62.9081   87.0816   18.1539 H       1  UNL1        0.1235
     21 C          62.4576   85.3518   17.1647 C.3     1  UNL1        0.1731
     22 C          62.4474   84.6560   15.8358 C.3     1  UNL1        0.4118
     23 F          62.4371   83.9602   14.5070 F       1  UNL1       -0.1685
     24 F          61.0131   85.0493   15.6409 F       1  UNL1       -0.1685
     25 F          63.8818   84.2626   16.0307 F       1  UNL1       -0.1685
     26 C          61.8795   88.9792   10.1250 C.3     1  UNL1        0.0450
     27 C          61.9135   89.7973   11.3819 C.3     1  UNL1        0.2165
     28 O          60.7501   89.7671   12.3281 O.3     1  UNL1       -0.3737
     29 H          60.9328   90.3471   13.0838 H       1  UNL1        0.2111
@<TRIPOS>BOND
     1    27    26    1
     2    27    28    1
     3    27     1    1
     4     1     2    2
     5     2     3    1
     6     3     4    2
     7     4     5    1
     8     5     6    2
     9     6     7    1
    10     7     8    2
    11     8     9    1
    12     9    10    2
    13    10    11    1
    14    11    12    1
    15    13    12    1
    16    13    14    1
    17    14    15    1
    18    15    16    1
    19    16    19    1
    20    19    21    1
    21    21    22    1
    22    22    23    1
    23    22    24    1
    24    22    25    1
    25    16    17    1
    26    17    18    1
    27    12     1    1
    28    18    13    1
    29    11     3    1
    30    10     6    1
    31    28    29    1
    32    19    20    1
@<TRIPOS>MOLECULE
*****
 29 32 0 0 0
SMALL
GASTEIGER

@<TRIPOS>ATOM
      1 C          63.8263   86.0893   13.7756 C.2     1  UNL1        0.3270
      2 N          63.2484   85.1015   12.8059 N.2     1  UNL1       -0.0380
      3 C          62.5488   85.8693   11.7236 C.2     1  UNL1        0.2637
      4 C          61.7981   85.4259   10.5031 C.2     1  UNL1        0.2821
      5 N          61.1929   86.4448    9.5834 N.2     1  UNL1       -0.0268
      6 C          61.3385   87.9070    9.8843 C.2     1  UNL1        0.3760
      7 N          60.8541   89.1323    9.1674 N.2     1  UNL1       -0.0306
      8 C          61.3055   90.3330    9.9449 C.2     1  UNL1        0.2361
      9 C          62.0689   89.8498   11.1423 C.2     1  UNL1        0.0583
     10 C          62.0892   88.3504   11.1049 C.2     1  UNL1        0.1203
     11 C          62.6944   87.3316   12.0245 C.3     1  UNL1        0.2596
     12 N          63.4839   87.4676   13.2927 N.pl3   1  UNL1       -0.1887
     13 C          63.8642   88.7556   13.9607 C.3     1  UNL1        0.1606
     14 C          64.6691   89.7782   13.2148 C.3     1  UNL1        0.0480
     15 C          65.0495   91.0663   13.8829 C.3     1  UNL1        0.0198
     16 C          64.6249   91.3317   15.2968 C.3     1  UNL1        0.0545
     17 C          63.8201   90.3091   16.0427 C.3     1  UNL1        0.0198
     18 C          63.4397   89.0210   15.3747 C.3     1  UNL1        0.0480
     19 N          65.0053   92.6197   15.9648 N.3     1  UNL1       -0.2914
     20 H          64.3432   92.7626   16.7275 H       1  UNL1        0.1235
     21 C          66.3780   92.7863   16.5462 C.3     1  UNL1        0.1731
     22 C          67.5686   92.8917   15.6398 C.3     1  UNL1        0.4118
     23 F          68.7591   92.9972   14.7335 F       1  UNL1       -0.1685
     24 F          66.8214   93.8595   14.7710 F       1  UNL1       -0.1685
     25 F          68.3158   91.9238   16.5088 F       1  UNL1       -0.1685
     26 C          63.9061   85.6136   16.3285 C.3     1  UNL1        0.0450
     27 C          64.6091   85.7571   15.0112 C.3     1  UNL1        0.2165
     28 O          66.0949   85.5683   14.9295 O.3     1  UNL1       -0.3737
     29 H          66.3871   85.6951   14.0133 H       1  UNL1        0.2111
@<TRIPOS>BOND
     1    27    26    1
     2    27    28    1
     3    27     1    1
     4     1     2    2
     5     2     3    1
     6     3     4    2
     7     4     5    1
     8     5     6    2
     9     6     7    1
    10     7     8    2
    11     8     9    1
    12     9    10    2
    13    10    11    1
    14    11    12    1
    15    13    12    1
    16    13    14    1
    17    14    15    1
    18    15    16    1
    19    16    19    1
    20    19    21    1
    21    21    22    1
    22    22    23    1
    23    22    24    1
    24    22    25    1
    25    16    17    1
    26    17    18    1
    27    12     1    1
    28    18    13    1
    29    11     3    1
    30    10     6    1
    31    28    29    1
    32    19    20    1
@<TRIPOS>MOLECULE
*****
 29 32 0 0 0
SMALL
GASTEIGER

@<TRIPOS>ATOM
      1 C          63.5449   88.8023   13.0746 C.2     1  UNL1        0.3270
      2 N          64.3359   88.2678   14.2316 N.2     1  UNL1       -0.0380
      3 C          64.2645   86.7701   14.1896 C.2     1  UNL1        0.2637
      4 C          64.8520   85.7120   15.0756 C.2     1  UNL1        0.2821
      5 N          64.6044   84.2626   14.7787 N.2     1  UNL1       -0.0268
      6 C          63.7692   83.8715   13.5957 C.2     1  UNL1        0.3760
      7 N          63.3562   82.5339   13.0570 N.2     1  UNL1       -0.0306
      8 C          62.5134   82.7653   11.8379 C.2     1  UNL1        0.2361
      9 C          62.4055   84.2460   11.6233 C.2     1  UNL1        0.0583
     10 C          63.1817   84.9296   12.7097 C.2     1  UNL1        0.1203
     11 C          63.4293   86.3789   13.0066 C.3     1  UNL1        0.2596
     12 N          62.9846   87.6349   12.3175 N.pl3   1  UNL1       -0.1887
     13 C          62.1296   87.7102   11.0873 C.3     1  UNL1        0.1606
     14 C          60.8635   88.5144   11.1020 C.3     1  UNL1        0.0480
     15 C          60.0086   88.5897    9.8717 C.3     1  UNL1        0.0198
     16 C          60.4198   87.8609    8.6269 C.3     1  UNL1        0.0545
     17 C          61.6859   87.0567    8.6122 C.3     1  UNL1        0.0198
     18 C          62.5408   86.9814    9.8424 C.3     1  UNL1        0.0480
     19 N          59.5648   87.9362    7.3967 N.3     1  UNL1       -0.2914
     20 H          58.9315   87.1373    7.4290 H       1  UNL1        0.1235
     21 C          58.7194   89.1492    7.1441 C.3     1  UNL1        0.1731
     22 C          59.0264   90.0490    5.9838 C.3     1  UNL1        0.4118
     23 F          59.3333   90.9487    4.8236 F       1  UNL1       -0.1685
     24 F          57.5617   90.3192    5.8058 F       1  UNL1       -0.1685
     25 F          60.4911   89.7787    6.1618 F       1  UNL1       -0.1685
     26 C          63.4120   90.6997   11.3049 C.3     1  UNL1        0.0450
     27 C          63.3487   90.2499   12.7345 C.3     1  UNL1        0.2165
     28 O          63.0891   91.2478   13.8239 O.3     1  UNL1       -0.3737
     29 H          63.0800   90.7950   14.6817 H       1  UNL1        0.2111
@<TRIPOS>BOND
     1    27    26    1
     2    27    28    1
     3    27     1    1
     4     1     2    2
     5     2     3    1
     6     3     4    2
     7     4     5    1
     8     5     6    2
     9     6     7    1
    10     7     8    2
    11     8     9    1
    12     9    10    2
    13    10    11    1
    14    11    12    1
    15    13    12    1
    16    13    14    1
    17    14    15    1
    18    15    16    1
    19    16    19    1
    20    19    21    1
    21    21    22    1
    22    22    23    1
    23    22    24    1
    24    22    25    1
    25    16    17    1
    26    17    18    1
    27    12     1    1
    28    18    13    1
    29    11     3    1
    30    10     6    1
    31    28    29    1
    32    19    20    1
@<TRIPOS>MOLECULE
*****
 29 32 0 0 0
SMALL
GASTEIGER

@<TRIPOS>ATOM
      1 C          62.7228   83.2969   14.8706 C.2     1  UNL1        0.3270
      2 N          62.7117   83.7535   16.2993 N.2     1  UNL1       -0.0380
      3 C          62.9883   85.2277   16.3170 C.2     1  UNL1        0.2637
      4 C          63.0979   86.2150   17.4409 C.2     1  UNL1        0.2821
      5 N          63.3896   87.6568   17.1470 N.2     1  UNL1       -0.0268
      6 C          63.5716   88.1112   15.7291 C.2     1  UNL1        0.3760
      7 N          63.8655   89.4574   15.1365 N.2     1  UNL1       -0.0306
      8 C          63.9375   89.3021   13.6463 C.2     1  UNL1        0.2361
      9 C          63.6881   87.8599   13.3179 C.2     1  UNL1        0.0583
     10 C          63.4619   87.1239   14.6052 C.2     1  UNL1        0.1203
     11 C          63.1703   85.6821   14.8991 C.3     1  UNL1        0.2596
     12 N          63.0062   84.4888   14.0052 N.pl3   1  UNL1       -0.1887
     13 C          63.1077   84.4876   12.5087 C.3     1  UNL1        0.1606
     14 C          62.2097   85.3720   11.6953 C.3     1  UNL1        0.0480
     15 C          62.3112   85.3707   10.1987 C.3     1  UNL1        0.0198
     16 C          63.3107   84.4852    9.5155 C.3     1  UNL1        0.0545
     17 C          64.2087   83.6009   10.3289 C.3     1  UNL1        0.0198
     18 C          64.1072   83.6021   11.8254 C.3     1  UNL1        0.0480
     19 N          63.4122   84.4840    8.0190 N.3     1  UNL1       -0.2914
     20 H          63.4404   83.5073    7.7266 H       1  UNL1        0.1235
     21 C          62.3520   85.1523    7.1948 C.3     1  UNL1        0.1731
     22 C          61.8363   84.4867    5.9534 C.3     1  UNL1        0.4118
     23 F          61.3206   83.8210    4.7121 F       1  UNL1       -0.1685
     24 F          60.4440   84.5274    6.5100 F       1  UNL1       -0.1685
     25 F          63.2287   84.4460    5.3968 F       1  UNL1       -0.1685
     26 C          61.0951   81.4131   14.1276 C.3     1  UNL1        0.0450
     27 C          62.4911   81.8945   14.3914 C.3     1  UNL1        0.2165
     28 O          63.6553   80.9736   14.1761 O.3     1  UNL1       -0.3737
     29 H          64.4792   81.4382   14.3912 H       1  UNL1        0.2111
@<TRIPOS>BOND
     1    27    26    1
     2    27    28    1
     3    27     1    1
     4     1     2    2
     5     2     3    1
     6     3     4    2
     7     4     5    1
     8     5     6    2
     9     6     7    1
    10     7     8    2
    11     8     9    1
    12     9    10    2
    13    10    11    1
    14    11    12    1
    15    13    12    1
    16    13    14    1
    17    14    15    1
    18    15    16    1
    19    16    19    1
    20    19    21    1
    21    21    22    1
    22    22    23    1
    23    22    24    1
    24    22    25    1
    25    16    17    1
    26    17    18    1
    27    12     1    1
    28    18    13    1
    29    11     3    1
    30    10     6    1
    31    28    29    1
    32    19    20    1
@<TRIPOS>MOLECULE
*****
 29 32 0 0 0
SMALL
GASTEIGER

@<TRIPOS>ATOM
      1 C          62.9370   88.4987   12.3928 C.2     1  UNL1        0.3270
      2 N          62.3746   89.7985   11.8986 N.2     1  UNL1       -0.0380
      3 C          61.5047   89.5060   10.7120 C.2     1  UNL1        0.2637
      4 C          60.6933   90.3964    9.8185 C.2     1  UNL1        0.2821
      5 N          59.9066   89.8063    8.6858 N.2     1  UNL1       -0.0268
      6 C          59.9313   88.3257    8.4468 C.2     1  UNL1        0.3760
      7 N          59.2622   87.4639    7.4174 N.2     1  UNL1       -0.0306
      8 C          59.6601   86.0408    7.6749 C.2     1  UNL1        0.2361
      9 C          60.5752   86.0230    8.8634 C.2     1  UNL1        0.0583
     10 C          60.7428   87.4352    9.3404 C.2     1  UNL1        0.1203
     11 C          61.5295   88.0253   10.4730 C.3     1  UNL1        0.2596
     12 N          62.4146   87.4028   11.5118 N.pl3   1  UNL1       -0.1887
     13 C          62.7233   85.9411   11.6460 C.3     1  UNL1        0.1606
     14 C          62.4569   85.2342   12.9418 C.3     1  UNL1        0.0480
     15 C          62.7656   83.7724   13.0760 C.3     1  UNL1        0.0198
     16 C          63.3407   83.0176   11.9143 C.3     1  UNL1        0.0545
     17 C          63.6071   83.7246   10.6185 C.3     1  UNL1        0.0198
     18 C          63.2984   85.1863   10.4843 C.3     1  UNL1        0.0480
     19 N          63.6494   81.5559   12.0485 N.3     1  UNL1       -0.2914
     20 H          64.6466   81.4473   11.8636 H       1  UNL1        0.1235
     21 C          63.3685   80.8455   13.3394 C.3     1  UNL1        0.1731
     22 C          62.0122   80.2565   13.5917 C.3     1  UNL1        0.4118
     23 F          60.6560   79.6675   13.8439 F       1  UNL1       -0.1685
     24 F          62.2435   79.2558   12.4985 F       1  UNL1       -0.1685
     25 F          61.7810   81.2572   14.6849 F       1  UNL1       -0.1685
     26 C          64.4990   89.5244   14.1978 C.3     1  UNL1        0.0450
     27 C          63.8596   88.3253   13.5627 C.3     1  UNL1        0.2165
     28 O          64.1429   86.9528   14.0974 O.3     1  UNL1       -0.3737
     29 H          63.6541   86.2960   13.5773 H       1  UNL1        0.2111
@<TRIPOS>BOND
     1    27    26    1
     2    27    28    1
     3    27     1    1
     4     1     2    2
     5     2     3    1
     6     3     4    2
     7     4     5    1
     8     5     6    2
     9     6     7    1
    10     7     8    2
    11     8     9    1
    12     9    10    2
    13    10    11    1
    14    11    12    1
    15    13    12    1
    16    13    14    1
    17    14    15    1
    18    15    16    1
    19    16    19    1
    20    19    21    1
    21    21    22    1
    22    22    23    1
    23    22    24    1
    24    22    25    1
    25    16    17    1
    26    17    18    1
    27    12     1    1
    28    18    13    1
    29    11     3    1
    30    10     6    1
    31    28    29    1
    32    19    20    1
@<TRIPOS>MOLECULE
*****
 29 32 0 0 0
SMALL
GASTEIGER

@<TRIPOS>ATOM
      1 C          63.3825   84.0156   12.4126 C.2     1  UNL1        0.3270
      2 N          64.1941   84.1031   13.6710 N.2     1  UNL1       -0.0380
      3 C          64.3235   85.5514   14.0394 C.2     1  UNL1        0.2637
      4 C          65.0129   86.2392   15.1802 C.2     1  UNL1        0.2821
      5 N          64.9708   87.7346   15.2903 N.2     1  UNL1       -0.0268
      6 C          64.2391   88.5421   14.2595 C.2     1  UNL1        0.3760
      7 N          64.0273   90.0192   14.1065 N.2     1  UNL1       -0.0306
      8 C          63.2069   90.2442   12.8711 C.2     1  UNL1        0.2361
      9 C          62.9117   88.9063   12.2606 C.2     1  UNL1        0.0583
     10 C          63.5496   87.8543   13.1187 C.2     1  UNL1        0.1203
     11 C          63.5918   86.3590   13.0086 C.3     1  UNL1        0.2596
     12 N          63.0103   85.4097   12.0032 N.pl3   1  UNL1       -0.1887
     13 C          62.1989   85.7883   10.7997 C.3     1  UNL1        0.1606
     14 C          60.9041   86.5261   10.9699 C.3     1  UNL1        0.0480
     15 C          60.0928   86.9047    9.7663 C.3     1  UNL1        0.0198
     16 C          60.5763   86.5453    8.3927 C.3     1  UNL1        0.0545
     17 C          61.8711   85.8074    8.2225 C.3     1  UNL1        0.0198
     18 C          62.6824   85.4289    9.4259 C.3     1  UNL1        0.0480
     19 N          59.7649   86.9238    7.1892 N.3     1  UNL1       -0.2914
     20 H          59.1279   86.1481    7.0077 H       1  UNL1        0.1235
     21 C          58.9332   88.1719    7.2077 C.3     1  UNL1        0.1731
     22 C          59.4982   89.4576    6.6804 C.3     1  UNL1        0.4118
     23 F          60.0631   90.7432    6.1531 F       1  UNL1       -0.1685
     24 F          58.5900   89.3683    5.4899 F       1  UNL1       -0.1685
     25 F          60.4063   89.5468    7.8709 F       1  UNL1       -0.1685
     26 C          63.7453   82.3574   10.4456 C.3     1  UNL1        0.0450
     27 C          63.0088   82.7551   11.6904 C.3     1  UNL1        0.2165
     28 O          61.8986   81.8923   12.2130 O.3     1  UNL1       -0.3737
     29 H          61.5317   82.2900   13.0181 H       1  UNL1        0.2111
@<TRIPOS>BOND
     1    27    26    1
     2    27    28    1
     3    27     1    1
     4     1     2    2
     5     2     3    1
     6     3     4    2
     7     4     5    1
     8     5     6    2
     9     6     7    1
    10     7     8    2
    11     8     9    1
    12     9    10    2
    13    10    11    1
    14    11    12    1
    15    13    12    1
    16    13    14    1
    17    14    15    1
    18    15    16    1
    19    16    19    1
    20    19    21    1
    21    21    22    1
    22    22    23    1
    23    22    24    1
    24    22    25    1
    25    16    17    1
    26    17    18    1
    27    12     1    1
    28    18    13    1
    29    11     3    1
    30    10     6    1
    31    28    29    1
    32    19    20    1
@<TRIPOS>MOLECULE
*****
 29 32 0 0 0
SMALL
GASTEIGER

@<TRIPOS>ATOM
      1 C          62.1750   89.6618   11.9468 C.2     1  UNL1        0.3270
      2 N          61.4875   90.6178   11.0176 N.2     1  UNL1       -0.0380
      3 C          60.9269   89.8284    9.8719 C.2     1  UNL1        0.2637
      4 C          60.1500   90.2379    8.6560 C.2     1  UNL1        0.2821
      5 N          59.7140   89.2035    7.6609 N.2     1  UNL1       -0.0268
      6 C          60.0550   87.7596    7.8820 C.2     1  UNL1        0.3760
      7 N          59.7628   86.5253    7.0813 N.2     1  UNL1       -0.0306
      8 C          60.3592   85.3530    7.8025 C.2     1  UNL1        0.2361
      9 C          61.0200   85.8628    9.0489 C.2     1  UNL1        0.0583
     10 C          60.8320   87.3501    9.0980 C.2     1  UNL1        0.1203
     11 C          61.2679   88.3846   10.0930 C.3     1  UNL1        0.2596
     12 N          62.0393   88.2815   11.3753 N.pl3   1  UNL1       -0.1887
     13 C          62.5801   87.0199   11.9800 C.3     1  UNL1        0.1606
     14 C          62.1315   85.6865   11.4595 C.3     1  UNL1        0.0480
     15 C          62.6723   84.4248   12.0643 C.3     1  UNL1        0.0198
     16 C          63.6616   84.4964   13.1895 C.3     1  UNL1        0.0545
     17 C          64.1102   85.8298   13.7099 C.3     1  UNL1        0.0198
     18 C          63.5694   87.0915   13.1052 C.3     1  UNL1        0.0480
     19 N          64.2023   83.2348   13.7942 N.3     1  UNL1       -0.2914
     20 H          64.9205   83.5130   14.4629 H       1  UNL1        0.1235
     21 C          63.2822   82.2935   14.5135 C.3     1  UNL1        0.1731
     22 C          62.6789   81.1302   13.7835 C.3     1  UNL1        0.4118
     23 F          62.0756   79.9669   13.0536 F       1  UNL1       -0.1685
     24 F          61.3705   81.3749   14.4749 F       1  UNL1       -0.1685
     25 F          63.9874   80.8854   13.0921 F       1  UNL1       -0.1685
     26 C          64.2721   90.5680   13.1841 C.3     1  UNL1        0.0450
     27 C          62.8753   90.0226   13.2232 C.3     1  UNL1        0.2165
     28 O          62.1788   89.8381   14.5388 O.3     1  UNL1       -0.3737
     29 H          61.2905   89.4793   14.3868 H       1  UNL1        0.2111
@<TRIPOS>BOND
     1    27    26    1
     2    27    28    1
     3    27     1    1
     4     1     2    2
     5     2     3    1
     6     3     4    2
     7     4     5    1
     8     5     6    2
     9     6     7    1
    10     7     8    2
    11     8     9    1
    12     9    10    2
    13    10    11    1
    14    11    12    1
    15    13    12    1
    16    13    14    1
    17    14    15    1
    18    15    16    1
    19    16    19    1
    20    19    21    1
    21    21    22    1
    22    22    23    1
    23    22    24    1
    24    22    25    1
    25    16    17    1
    26    17    18    1
    27    12     1    1
    28    18    13    1
    29    11     3    1
    30    10     6    1
    31    28    29    1
    32    19    20    1
