@<TRIPOS>MOLECULE
*****
 40 43 0 0 0
SMALL
GASTEIGER

@<TRIPOS>ATOM
      1 N          63.4539   86.0705   13.0024 N.am    1  UNL1       -0.2770
      2 C          64.0604   84.7759   13.4567 C.2     1  UNL1        0.2294
      3 O          64.5115   84.9546   14.0892 O.2     1  UNL1       -0.2747
      4 C          63.7494   83.5042   12.7244 C.3     1  UNL1        0.1208
      5 C          64.1577   83.3459   11.2897 C.3     1  UNL1        0.0804
      6 N          63.8468   82.0743   10.5574 N.3     1  UNL1       -0.2969
      7 C          63.1276   80.9610   11.2599 C.3     1  UNL1        0.0714
      8 C          62.7193   81.1193   12.6945 C.3     1  UNL1        0.0487
      9 C          63.0303   82.3910   13.4268 C.3     1  UNL1        0.1177
     10 O          62.3352   81.6272   14.5146 O.3     1  UNL1       -0.3821
     11 H          64.7373   81.6936   10.2371 H       1  UNL1        0.1233
     12 H          62.0676   80.7574   14.1788 H       1  UNL1        0.2107
     13 C          63.0998   83.3973   14.5368 C.ar    1  UNL1        0.0046
     14 C          64.3954   83.6335   15.2550 C.ar    1  UNL1        0.0004
     15 C          64.4649   84.6399   16.3651 C.ar    1  UNL1        0.0317
     16 C          63.2389   85.4101   16.7571 C.ar    1  UNL1        0.1674
     17 F          63.3085   86.4166   17.8672 F       1  UNL1       -0.2018
     18 C          61.9433   85.1741   16.0389 C.ar    1  UNL1        0.1671
     19 F          60.7173   85.9443   16.4308 F       1  UNL1       -0.2018
     20 C          61.8738   84.1676   14.9288 C.ar    1  UNL1        0.0299
     21 C          62.5366   86.0934   11.8159 C.3     1  UNL1        0.0758
     22 C          61.1496   86.1451   11.2470 C.3     1  UNL1        0.0215
     23 C          62.3347   86.0813   10.3296 C.3     1  UNL1        0.0215
     24 C          63.7649   87.3421   13.7347 C.3     1  UNL1        0.1201
     25 C          62.7154   90.1017   11.0827 C.ar    1  UNL1       -0.0194
     26 C          62.8188   88.7838   11.7913 C.ar    1  UNL1       -0.0067
     27 C          63.6615   88.6602   13.0260 C.ar    1  UNL1        0.0004
     28 C          64.4009   89.8545   13.5521 C.ar    1  UNL1        0.0343
     29 C          64.2975   91.1725   12.8434 C.ar    1  UNL1        0.1381
     30 C          63.4547   91.2961   11.6087 C.ar    1  UNL1        0.0326
     31 C          61.8726   90.2253    9.8480 C.3     1  UNL1        0.0290
     32 C          60.5406   89.5392    9.7773 C.3     1  UNL1        0.0367
     33 C          60.1213   88.8432    8.5165 C.3     1  UNL1        0.1426
     34 C          59.6425   86.4115    7.7370 C.3     1  UNL1        0.1741
     35 O          59.2920   87.5954    8.5888 O.3     1  UNL1       -0.3511
     36 O          65.0369   92.3670   13.3694 O.3     1  UNL1       -0.4728
     37 C          66.4222   92.6673   12.8789 C.3     1  UNL1        0.2373
     38 C          67.6022   91.9746   13.4937 C.3     1  UNL1        0.1894
     39 O          68.5232   92.7291   14.4060 O.3     1  UNL1       -0.3471
     40 C          67.9670   93.4810   15.5787 C.3     1  UNL1        0.1743
@<TRIPOS>BOND
     1    34    35    1
     2    35    33    1
     3    33    32    1
     4    32    31    1
     5    31    25    1
     6    25    26   ar
     7    26    27   ar
     8    27    24    1
     9    24     1    1
    10     1     2   am
    11     2     3    2
    12     2     4    1
    13     4     5    1
    14     5     6    1
    15     6     7    1
    16     7     8    1
    17     8     9    1
    18     9    10    1
    19     9    13    1
    20    13    14   ar
    21    14    15   ar
    22    15    16   ar
    23    16    17    1
    24    16    18   ar
    25    18    19    1
    26    18    20   ar
    27     1    21    1
    28    21    22    1
    29    22    23    1
    30    27    28   ar
    31    28    29   ar
    32    29    36    1
    33    36    37    1
    34    37    38    1
    35    38    39    1
    36    39    40    1
    37    29    30   ar
    38    30    25   ar
    39     9     4    1
    40    20    13   ar
    41    23    21    1
    42     6    11    1
    43    10    12    1
@<TRIPOS>MOLECULE
*****
 40 43 0 0 0
SMALL
GASTEIGER

@<TRIPOS>ATOM
      1 N          62.1341   88.3771   11.0696 N.am    1  UNL1       -0.2770
      2 C          62.1011   87.8265    9.6746 C.2     1  UNL1        0.2294
      3 O          62.7715   87.4038    9.5893 O.2     1  UNL1       -0.2747
      4 C          60.9398   88.1313    8.7753 C.3     1  UNL1        0.1208
      5 C          60.5843   89.5554    8.4660 C.3     1  UNL1        0.0804
      6 N          59.4230   89.8601    7.5668 N.3     1  UNL1       -0.2969
      7 C          58.6174   88.7408    6.9768 C.3     1  UNL1        0.0714
      8 C          58.9729   87.3168    7.2861 C.3     1  UNL1        0.0487
      9 C          60.1342   87.0120    8.1854 C.3     1  UNL1        0.1177
     10 O          59.6766   85.6189    7.8696 O.3     1  UNL1       -0.3821
     11 H          59.7905   90.4024    6.7849 H       1  UNL1        0.1233
     12 H          58.9082   85.6570    7.2788 H       1  UNL1        0.2107
     13 C          61.1364   86.2235    8.9750 C.ar    1  UNL1        0.0046
     14 C          62.3542   85.6672    8.2984 C.ar    1  UNL1        0.0004
     15 C          63.3565   84.8786    9.0881 C.ar    1  UNL1        0.0317
     16 C          63.1411   84.6463   10.5543 C.ar    1  UNL1        0.1674
     17 F          64.1435   83.8577   11.3439 F       1  UNL1       -0.2018
     18 C          61.9234   85.2025   11.2308 C.ar    1  UNL1        0.1671
     19 F          61.7079   84.9702   12.6970 F       1  UNL1       -0.2018
     20 C          60.9211   85.9911   10.4411 C.ar    1  UNL1        0.0299
     21 C          61.0059   89.2323   11.5652 C.3     1  UNL1        0.0758
     22 C          60.3570   90.5782   11.6972 C.3     1  UNL1        0.0215
     23 C          59.7006   89.3677   12.2918 C.3     1  UNL1        0.0215
     24 C          63.2953   88.0723   11.9688 C.3     1  UNL1        0.1201
     25 C          63.5522   89.3888   15.7039 C.ar    1  UNL1       -0.0194
     26 C          63.2588   88.5010   14.5311 C.ar    1  UNL1       -0.0067
     27 C          63.5888   88.9602   13.1417 C.ar    1  UNL1        0.0004
     28 C          64.2123   90.3071   12.9253 C.ar    1  UNL1        0.0343
     29 C          64.5058   91.1949   14.0982 C.ar    1  UNL1        0.1381
     30 C          64.1757   90.7357   15.4875 C.ar    1  UNL1        0.0326
     31 C          63.2222   88.9296   17.0933 C.3     1  UNL1        0.0290
     32 C          62.4355   87.6693   17.2996 C.3     1  UNL1        0.0367
     33 C          63.1268   86.3386   17.2596 C.3     1  UNL1        0.1426
     34 C          63.8668   84.9332   15.2036 C.3     1  UNL1        0.1741
     35 O          62.8029   85.3575   16.1721 O.3     1  UNL1       -0.3511
     36 O          65.1293   92.5420   13.8817 O.3     1  UNL1       -0.4728
     37 C          66.3675   92.6695   13.0448 C.3     1  UNL1        0.2373
     38 C          67.6448   92.0222   13.4916 C.3     1  UNL1        0.1894
     39 O          68.5667   92.7482   14.4259 O.3     1  UNL1       -0.3471
     40 C          68.0096   93.4809   15.6103 C.3     1  UNL1        0.1743
@<TRIPOS>BOND
     1    34    35    1
     2    35    33    1
     3    33    32    1
     4    32    31    1
     5    31    25    1
     6    25    26   ar
     7    26    27   ar
     8    27    24    1
     9    24     1    1
    10     1     2   am
    11     2     3    2
    12     2     4    1
    13     4     5    1
    14     5     6    1
    15     6     7    1
    16     7     8    1
    17     8     9    1
    18     9    10    1
    19     9    13    1
    20    13    14   ar
    21    14    15   ar
    22    15    16   ar
    23    16    17    1
    24    16    18   ar
    25    18    19    1
    26    18    20   ar
    27     1    21    1
    28    21    22    1
    29    22    23    1
    30    27    28   ar
    31    28    29   ar
    32    29    36    1
    33    36    37    1
    34    37    38    1
    35    38    39    1
    36    39    40    1
    37    29    30   ar
    38    30    25   ar
    39     9     4    1
    40    20    13   ar
    41    23    21    1
    42     6    11    1
    43    10    12    1
@<TRIPOS>MOLECULE
*****
 40 43 0 0 0
SMALL
GASTEIGER

@<TRIPOS>ATOM
      1 N          61.6959   88.9408   11.0754 N.am    1  UNL1       -0.2770
      2 C          61.8132   88.2847    9.7315 C.2     1  UNL1        0.2294
      3 O          62.5172   87.9107    9.7303 O.2     1  UNL1       -0.2747
      4 C          60.7077   88.4280    8.7279 C.3     1  UNL1        0.1208
      5 C          60.3818   89.7769    8.1584 C.3     1  UNL1        0.0804
      6 N          59.2762   89.9201    7.1548 N.3     1  UNL1       -0.2969
      7 C          58.4965   88.7144    6.7208 C.3     1  UNL1        0.0714
      8 C          58.8223   87.3656    7.2903 C.3     1  UNL1        0.0487
      9 C          59.9279   87.2223    8.2939 C.3     1  UNL1        0.1177
     10 O          59.4778   85.7948    8.1966 O.3     1  UNL1       -0.3821
     11 H          59.6920   90.3203    6.3138 H       1  UNL1        0.1233
     12 H          58.7447   85.7292    7.5648 H       1  UNL1        0.2107
     13 C          60.8772   86.5834    9.2636 C.ar    1  UNL1        0.0046
     14 C          60.5925   86.6338   10.7356 C.ar    1  UNL1        0.0004
     15 C          61.5419   85.9947   11.7053 C.ar    1  UNL1        0.0317
     16 C          62.7758   85.3053   11.2032 C.ar    1  UNL1        0.1674
     17 F          63.7251   84.6663   12.1731 F       1  UNL1       -0.2018
     18 C          63.0605   85.2549    9.7314 C.ar    1  UNL1        0.1671
     19 F          64.2944   84.5655    9.2292 F       1  UNL1       -0.2018
     20 C          62.1111   85.8939    8.7616 C.ar    1  UNL1        0.0299
     21 C          60.4731   89.7401   11.4156 C.3     1  UNL1        0.0758
     22 C          59.1602   89.8650   12.1301 C.3     1  UNL1        0.0215
     23 C          59.6680   90.9994   11.2904 C.3     1  UNL1        0.0215
     24 C          62.8015   88.7976   12.0789 C.3     1  UNL1        0.1201
     25 C          65.1099   91.3151   14.0997 C.ar    1  UNL1       -0.0194
     26 C          64.2286   90.1436   13.7825 C.ar    1  UNL1       -0.0067
     27 C          63.6829   89.9692   12.3961 C.ar    1  UNL1        0.0004
     28 C          64.0186   90.9664   11.3271 C.ar    1  UNL1        0.0343
     29 C          64.9000   92.1379   11.6443 C.ar    1  UNL1        0.1381
     30 C          65.4456   92.3123   13.0307 C.ar    1  UNL1        0.0326
     31 C          65.6555   91.4895   15.4860 C.3     1  UNL1        0.0290
     32 C          66.6931   92.5382   15.7572 C.3     1  UNL1        0.0367
     33 C          68.1447   92.2323   15.5349 C.3     1  UNL1        0.1426
     34 C          68.8204   91.6936   13.0847 C.3     1  UNL1        0.1741
     35 O          68.8082   92.6361   14.2516 O.3     1  UNL1       -0.3511
     36 O          65.2357   93.1351   10.5753 O.3     1  UNL1       -0.4728
     37 C          66.2193   94.2324   10.8553 C.3     1  UNL1        0.2373
     38 C          67.1582   94.6908    9.7790 C.3     1  UNL1        0.1894
     39 O          68.5128   94.0603    9.6469 O.3     1  UNL1       -0.3471
     40 C          68.6322   92.5965    9.3422 C.3     1  UNL1        0.1743
@<TRIPOS>BOND
     1    34    35    1
     2    35    33    1
     3    33    32    1
     4    32    31    1
     5    31    25    1
     6    25    26   ar
     7    26    27   ar
     8    27    24    1
     9    24     1    1
    10     1     2   am
    11     2     3    2
    12     2     4    1
    13     4     5    1
    14     5     6    1
    15     6     7    1
    16     7     8    1
    17     8     9    1
    18     9    10    1
    19     9    13    1
    20    13    14   ar
    21    14    15   ar
    22    15    16   ar
    23    16    17    1
    24    16    18   ar
    25    18    19    1
    26    18    20   ar
    27     1    21    1
    28    21    22    1
    29    22    23    1
    30    27    28   ar
    31    28    29   ar
    32    29    36    1
    33    36    37    1
    34    37    38    1
    35    38    39    1
    36    39    40    1
    37    29    30   ar
    38    30    25   ar
    39     9     4    1
    40    20    13   ar
    41    23    21    1
    42     6    11    1
    43    10    12    1
@<TRIPOS>MOLECULE
*****
 40 43 0 0 0
SMALL
GASTEIGER

@<TRIPOS>ATOM
      1 N          61.6820   88.9047   11.1042 N.am    1  UNL1       -0.2770
      2 C          61.8133   88.2688    9.7520 C.2     1  UNL1        0.2294
      3 O          62.5188   87.8977    9.7513 O.2     1  UNL1       -0.2747
      4 C          60.7156   88.4222    8.7413 C.3     1  UNL1        0.1208
      5 C          60.3899   89.7777    8.1876 C.3     1  UNL1        0.0804
      6 N          59.2922   89.9311    7.1769 N.3     1  UNL1       -0.2969
      7 C          58.5201   88.7289    6.7200 C.3     1  UNL1        0.0714
      8 C          58.8458   87.3734    7.2737 C.3     1  UNL1        0.0487
      9 C          59.9435   87.2201    8.2843 C.3     1  UNL1        0.1177
     10 O          59.4991   85.7925    8.1638 O.3     1  UNL1       -0.3821
     11 H          59.7135   90.3441    6.3449 H       1  UNL1        0.1233
     12 H          58.7715   85.7332    7.5251 H       1  UNL1        0.2107
     13 C          60.8869   86.5710    9.2531 C.ar    1  UNL1        0.0046
     14 C          60.5913   86.6025   10.7234 C.ar    1  UNL1        0.0004
     15 C          61.5347   85.9534   11.6922 C.ar    1  UNL1        0.0317
     16 C          62.7738   85.2727   11.1908 C.ar    1  UNL1        0.1674
     17 F          63.7172   84.6235   12.1596 F       1  UNL1       -0.2018
     18 C          63.0694   85.2410    9.7206 C.ar    1  UNL1        0.1671
     19 F          64.3084   84.5603    9.2191 F       1  UNL1       -0.2018
     20 C          62.1259   85.8902    8.7517 C.ar    1  UNL1        0.0299
     21 C          60.4530   89.6938   11.4457 C.3     1  UNL1        0.0758
     22 C          59.1490   89.8156   12.1771 C.3     1  UNL1        0.0215
     23 C          59.6282   90.9388   11.3060 C.3     1  UNL1        0.0215
     24 C          62.7797   88.7513   12.1149 C.3     1  UNL1        0.1201
     25 C          64.9011   92.0766   11.6764 C.ar    1  UNL1       -0.0194
     26 C          64.0023   90.9172   11.3636 C.ar    1  UNL1       -0.0067
     27 C          63.6785   89.9108   12.4277 C.ar    1  UNL1        0.0004
     28 C          64.2534   90.0639   13.8047 C.ar    1  UNL1        0.0343
     29 C          65.1521   91.2234   14.1175 C.ar    1  UNL1        0.1381
     30 C          65.4760   92.2298   13.0533 C.ar    1  UNL1        0.0326
     31 C          65.2249   93.0830   10.6122 C.3     1  UNL1        0.0290
     32 C          66.2878   94.1136   10.8531 C.3     1  UNL1        0.0367
     33 C          67.1882   94.5387    9.7313 C.3     1  UNL1        0.1426
     34 C          68.7981   92.5499    9.2806 C.3     1  UNL1        0.1741
     35 O          68.5814   93.9903    9.6389 O.3     1  UNL1       -0.3511
     36 O          65.7271   91.3766   15.4944 O.3     1  UNL1       -0.4728
     37 C          66.4708   92.6263   15.8619 C.3     1  UNL1        0.2373
     38 C          67.9688   92.6120   15.9403 C.3     1  UNL1        0.1894
     39 O          68.7867   92.8646   14.7086 O.3     1  UNL1       -0.3471
     40 C          68.7854   91.8656   13.5896 C.3     1  UNL1        0.1743
@<TRIPOS>BOND
     1    34    35    1
     2    35    33    1
     3    33    32    1
     4    32    31    1
     5    31    25    1
     6    25    26   ar
     7    26    27   ar
     8    27    24    1
     9    24     1    1
    10     1     2   am
    11     2     3    2
    12     2     4    1
    13     4     5    1
    14     5     6    1
    15     6     7    1
    16     7     8    1
    17     8     9    1
    18     9    10    1
    19     9    13    1
    20    13    14   ar
    21    14    15   ar
    22    15    16   ar
    23    16    17    1
    24    16    18   ar
    25    18    19    1
    26    18    20   ar
    27     1    21    1
    28    21    22    1
    29    22    23    1
    30    27    28   ar
    31    28    29   ar
    32    29    36    1
    33    36    37    1
    34    37    38    1
    35    38    39    1
    36    39    40    1
    37    29    30   ar
    38    30    25   ar
    39     9     4    1
    40    20    13   ar
    41    23    21    1
    42     6    11    1
    43    10    12    1
@<TRIPOS>MOLECULE
*****
 40 43 0 0 0
SMALL
GASTEIGER

@<TRIPOS>ATOM
      1 N          63.3621   86.1146   12.8888 N.am    1  UNL1       -0.2770
      2 C          63.9917   84.8409   13.3700 C.2     1  UNL1        0.2294
      3 O          64.4265   85.0383   14.0083 O.2     1  UNL1       -0.2747
      4 C          63.7256   83.5533   12.6480 C.3     1  UNL1        0.1208
      5 C          64.1042   83.4113   11.2035 C.3     1  UNL1        0.0804
      6 N          63.8382   82.1237   10.4815 N.3     1  UNL1       -0.2969
      7 C          63.1934   80.9781   11.2041 C.3     1  UNL1        0.0714
      8 C          62.8148   81.1201   12.6485 C.3     1  UNL1        0.0487
      9 C          63.0809   82.4077   13.3705 C.3     1  UNL1        0.1177
     10 O          62.4528   81.6135   14.4772 O.3     1  UNL1       -0.3821
     11 H          64.7379   81.7868   10.1390 H       1  UNL1        0.1233
     12 H          62.2202   80.7306   14.1497 H       1  UNL1        0.2107
     13 C          63.1288   83.4195   14.4768 C.ar    1  UNL1        0.0046
     14 C          64.4213   83.6934   15.1872 C.ar    1  UNL1        0.0004
     15 C          64.4692   84.7052   16.2935 C.ar    1  UNL1        0.0317
     16 C          63.2247   85.4432   16.6894 C.ar    1  UNL1        0.1674
     17 F          63.2727   86.4550   17.7958 F       1  UNL1       -0.2018
     18 C          61.9323   85.1693   15.9791 C.ar    1  UNL1        0.1671
     19 F          60.6878   85.9072   16.3749 F       1  UNL1       -0.2018
     20 C          61.8844   84.1575   14.8727 C.ar    1  UNL1        0.0299
     21 C          62.4664   86.1005   11.6856 C.3     1  UNL1        0.0758
     22 C          61.0906   86.1469   11.0898 C.3     1  UNL1        0.0215
     23 C          62.2908   86.0299   10.1977 C.3     1  UNL1        0.0215
     24 C          63.6282   87.4022   13.6107 C.3     1  UNL1        0.1201
     25 C          64.4126   91.1458   12.5523 C.ar    1  UNL1       -0.0194
     26 C          64.4557   89.8450   13.2981 C.ar    1  UNL1       -0.0067
     27 C          63.5850   88.7030   12.8649 C.ar    1  UNL1        0.0004
     28 C          62.6712   88.8617   11.6861 C.ar    1  UNL1        0.0343
     29 C          62.6281   90.1624   10.9404 C.ar    1  UNL1        0.1381
     30 C          63.4988   91.3045   11.3735 C.ar    1  UNL1        0.0326
     31 C          65.2833   92.2878   12.9855 C.3     1  UNL1        0.0290
     32 C          66.3205   92.0789   14.0487 C.3     1  UNL1        0.0367
     33 C          67.7718   92.0052   13.6766 C.3     1  UNL1        0.1426
     34 C          68.3778   93.5484   15.6769 C.3     1  UNL1        0.1741
     35 O          68.8039   92.6549   14.5499 O.3     1  UNL1       -0.3511
     36 O          61.7143   90.3211    9.7614 O.3     1  UNL1       -0.4728
     37 C          60.4321   89.5455    9.6966 C.3     1  UNL1        0.2373
     38 C          60.0742   88.7908    8.4506 C.3     1  UNL1        0.1894
     39 O          59.2008   87.5743    8.5355 O.3     1  UNL1       -0.3471
     40 C          59.4532   86.4053    7.6302 C.3     1  UNL1        0.1743
@<TRIPOS>BOND
     1    34    35    1
     2    35    33    1
     3    33    32    1
     4    32    31    1
     5    31    25    1
     6    25    26   ar
     7    26    27   ar
     8    27    24    1
     9    24     1    1
    10     1     2   am
    11     2     3    2
    12     2     4    1
    13     4     5    1
    14     5     6    1
    15     6     7    1
    16     7     8    1
    17     8     9    1
    18     9    10    1
    19     9    13    1
    20    13    14   ar
    21    14    15   ar
    22    15    16   ar
    23    16    17    1
    24    16    18   ar
    25    18    19    1
    26    18    20   ar
    27     1    21    1
    28    21    22    1
    29    22    23    1
    30    27    28   ar
    31    28    29   ar
    32    29    36    1
    33    36    37    1
    34    37    38    1
    35    38    39    1
    36    39    40    1
    37    29    30   ar
    38    30    25   ar
    39     9     4    1
    40    20    13   ar
    41    23    21    1
    42     6    11    1
    43    10    12    1
@<TRIPOS>MOLECULE
*****
 40 43 0 0 0
SMALL
GASTEIGER

@<TRIPOS>ATOM
      1 N          62.4430   88.2617   11.6858 N.am    1  UNL1       -0.2770
      2 C          62.0661   88.4585   10.2473 C.2     1  UNL1        0.2294
      3 O          61.9198   89.2375   10.1631 O.2     1  UNL1       -0.2747
      4 C          62.0322   87.2849    9.3136 C.3     1  UNL1        0.1208
      5 C          63.2985   86.5510    8.9851 C.3     1  UNL1        0.0804
      6 N          63.2646   85.3775    8.0514 N.3     1  UNL1       -0.2969
      7 C          61.9643   84.9379    7.4463 C.3     1  UNL1        0.0714
      8 C          60.6980   85.6718    7.7748 C.3     1  UNL1        0.0487
      9 C          60.7320   86.8453    8.7085 C.3     1  UNL1        0.1177
     10 O          59.2669   86.8089    8.3891 O.3     1  UNL1       -0.3821
     11 H          63.6336   84.5793    8.5682 H       1  UNL1        0.1233
     12 H          59.0875   86.0784    7.7765 H       1  UNL1        0.2107
     13 C          60.2571   88.0062    9.5312 C.ar    1  UNL1        0.0046
     14 C          60.3403   89.3992    8.9811 C.ar    1  UNL1        0.0004
     15 C          59.8654   90.5600    9.8039 C.ar    1  UNL1        0.0317
     16 C          59.3074   90.3279   11.1767 C.ar    1  UNL1        0.1674
     17 F          58.8325   91.4888   11.9994 F       1  UNL1       -0.2018
     18 C          59.2242   88.9349   11.7268 C.ar    1  UNL1        0.1671
     19 F          58.6661   88.7027   13.0996 F       1  UNL1       -0.2018
     20 C          59.6991   87.7740   10.9040 C.ar    1  UNL1        0.0299
     21 C          62.7860   86.8915   12.1906 C.3     1  UNL1        0.0758
     22 C          62.6153   85.4027   12.1252 C.3     1  UNL1        0.0215
     23 C          63.5505   86.0070   13.1303 C.3     1  UNL1        0.0215
     24 C          62.4770   89.4352   12.6194 C.3     1  UNL1        0.1201
     25 C          65.1209   92.1773   11.5056 C.ar    1  UNL1       -0.0194
     26 C          63.9277   91.2687   11.4862 C.ar    1  UNL1       -0.0067
     27 C          63.6703   90.3439   12.6389 C.ar    1  UNL1        0.0004
     28 C          64.6063   90.3277   13.8109 C.ar    1  UNL1        0.0343
     29 C          65.7996   91.2364   13.8303 C.ar    1  UNL1        0.1381
     30 C          66.0569   92.1612   12.6777 C.ar    1  UNL1        0.0326
     31 C          65.3783   93.1021   10.3530 C.3     1  UNL1        0.0290
     32 C          66.2636   94.2991   10.5350 C.3     1  UNL1        0.0367
     33 C          67.3335   94.6008    9.5280 C.3     1  UNL1        0.1426
     34 C          68.8366   92.5021    9.2339 C.3     1  UNL1        0.1741
     35 O          68.6747   93.9378    9.6372 O.3     1  UNL1       -0.3511
     36 O          66.7356   91.2203   15.0024 O.3     1  UNL1       -0.4728
     37 C          66.8342   92.4180   15.8999 C.3     1  UNL1        0.2373
     38 C          67.6931   93.5826   15.5048 C.3     1  UNL1        0.1894
     39 O          69.1275   93.3621   15.1254 O.3     1  UNL1       -0.3471
     40 C          69.4992   92.2162   14.2319 C.3     1  UNL1        0.1743
@<TRIPOS>BOND
     1    34    35    1
     2    35    33    1
     3    33    32    1
     4    32    31    1
     5    31    25    1
     6    25    26   ar
     7    26    27   ar
     8    27    24    1
     9    24     1    1
    10     1     2   am
    11     2     3    2
    12     2     4    1
    13     4     5    1
    14     5     6    1
    15     6     7    1
    16     7     8    1
    17     8     9    1
    18     9    10    1
    19     9    13    1
    20    13    14   ar
    21    14    15   ar
    22    15    16   ar
    23    16    17    1
    24    16    18   ar
    25    18    19    1
    26    18    20   ar
    27     1    21    1
    28    21    22    1
    29    22    23    1
    30    27    28   ar
    31    28    29   ar
    32    29    36    1
    33    36    37    1
    34    37    38    1
    35    38    39    1
    36    39    40    1
    37    29    30   ar
    38    30    25   ar
    39     9     4    1
    40    20    13   ar
    41    23    21    1
    42     6    11    1
    43    10    12    1
@<TRIPOS>MOLECULE
*****
 40 43 0 0 0
SMALL
GASTEIGER

@<TRIPOS>ATOM
      1 N          62.4301   88.1747   11.6686 N.am    1  UNL1       -0.2770
      2 C          62.0769   88.3918   10.2270 C.2     1  UNL1        0.2294
      3 O          61.9381   89.1730   10.1500 O.2     1  UNL1       -0.2747
      4 C          62.0479   87.2299    9.2787 C.3     1  UNL1        0.1208
      5 C          63.3139   86.4925    8.9571 C.3     1  UNL1        0.0804
      6 N          63.2849   85.3306    8.0088 N.3     1  UNL1       -0.2969
      7 C          61.9898   84.9061    7.3823 C.3     1  UNL1        0.0714
      8 C          60.7238   85.6434    7.7040 C.3     1  UNL1        0.0487
      9 C          60.7528   86.8053    8.6522 C.3     1  UNL1        0.1177
     10 O          59.2916   86.7814    8.3142 O.3     1  UNL1       -0.3821
     11 H          63.6429   84.5240    8.5204 H       1  UNL1        0.1233
     12 H          59.1158   86.0595    7.6906 H       1  UNL1        0.2107
     13 C          60.2744   87.9589    9.4830 C.ar    1  UNL1        0.0046
     14 C          60.3616   89.3569    8.9462 C.ar    1  UNL1        0.0004
     15 C          59.8831   90.5104    9.7772 C.ar    1  UNL1        0.0317
     16 C          59.3175   90.2661   11.1448 C.ar    1  UNL1        0.1674
     17 F          58.8391   91.4197   11.9756 F       1  UNL1       -0.2018
     18 C          59.2304   88.8682   11.6816 C.ar    1  UNL1        0.1671
     19 F          58.6648   88.6238   13.0492 F       1  UNL1       -0.2018
     20 C          59.7089   87.7146   10.8506 C.ar    1  UNL1        0.0299
     21 C          62.7543   86.7957   12.1619 C.3     1  UNL1        0.0758
     22 C          62.5493   85.3112   12.0969 C.3     1  UNL1        0.0215
     23 C          63.5208   85.8918   13.0813 C.3     1  UNL1        0.0215
     24 C          62.4592   89.3366   12.6168 C.3     1  UNL1        0.1201
     25 C          65.7307   91.2684   13.7638 C.ar    1  UNL1       -0.0194
     26 C          64.5671   90.3219   13.7727 C.ar    1  UNL1       -0.0067
     27 C          63.6229   90.2831   12.6078 C.ar    1  UNL1        0.0004
     28 C          63.8424   91.1907   11.4339 C.ar    1  UNL1        0.0343
     29 C          65.0060   92.1371   11.4250 C.ar    1  UNL1        0.1381
     30 C          65.9502   92.1760   12.5899 C.ar    1  UNL1        0.0326
     31 C          66.6749   91.3072   14.9287 C.3     1  UNL1        0.0290
     32 C          66.7551   92.5337   15.7885 C.3     1  UNL1        0.0367
     33 C          67.6815   93.6525   15.4145 C.3     1  UNL1        0.1426
     34 C          69.6455   92.4626   14.1992 C.3     1  UNL1        0.1741
     35 O          69.1515   93.3919   15.2680 O.3     1  UNL1       -0.3511
     36 O          65.2256   93.0448   10.2511 O.3     1  UNL1       -0.4728
     37 C          66.1624   94.2103   10.3690 C.3     1  UNL1        0.2373
     38 C          67.2607   94.3945    9.3640 C.3     1  UNL1        0.1894
     39 O          68.6206   93.8181    9.6251 O.3     1  UNL1       -0.3471
     40 C          68.9198   92.3990    9.2422 C.3     1  UNL1        0.1743
@<TRIPOS>BOND
     1    34    35    1
     2    35    33    1
     3    33    32    1
     4    32    31    1
     5    31    25    1
     6    25    26   ar
     7    26    27   ar
     8    27    24    1
     9    24     1    1
    10     1     2   am
    11     2     3    2
    12     2     4    1
    13     4     5    1
    14     5     6    1
    15     6     7    1
    16     7     8    1
    17     8     9    1
    18     9    10    1
    19     9    13    1
    20    13    14   ar
    21    14    15   ar
    22    15    16   ar
    23    16    17    1
    24    16    18   ar
    25    18    19    1
    26    18    20   ar
    27     1    21    1
    28    21    22    1
    29    22    23    1
    30    27    28   ar
    31    28    29   ar
    32    29    36    1
    33    36    37    1
    34    37    38    1
    35    38    39    1
    36    39    40    1
    37    29    30   ar
    38    30    25   ar
    39     9     4    1
    40    20    13   ar
    41    23    21    1
    42     6    11    1
    43    10    12    1
@<TRIPOS>MOLECULE
*****
 40 43 0 0 0
SMALL
GASTEIGER

@<TRIPOS>ATOM
      1 N          63.3658   86.1854   12.8901 N.am    1  UNL1       -0.2770
      2 C          63.9757   84.9101   13.3918 C.2     1  UNL1        0.2294
      3 O          64.4020   85.1087   14.0354 O.2     1  UNL1       -0.2747
      4 C          63.7092   83.6190   12.6761 C.3     1  UNL1        0.1208
      5 C          64.0852   83.4708   11.2315 C.3     1  UNL1        0.0804
      6 N          63.8188   82.1797   10.5159 N.3     1  UNL1       -0.2969
      7 C          63.1763   81.0369   11.2448 C.3     1  UNL1        0.0714
      8 C          62.8003   81.1851   12.6893 C.3     1  UNL1        0.0487
      9 C          63.0668   82.4762   13.4049 C.3     1  UNL1        0.1177
     10 O          62.4414   81.6865   14.5164 O.3     1  UNL1       -0.3821
     11 H          64.7182   81.8420   10.1731 H       1  UNL1        0.1233
     12 H          62.2089   80.8019   14.1934 H       1  UNL1        0.2107
     13 C          63.1160   83.4930   14.5066 C.ar    1  UNL1        0.0046
     14 C          64.4103   83.7734   15.2111 C.ar    1  UNL1        0.0004
     15 C          64.4595   84.7903   16.3127 C.ar    1  UNL1        0.0317
     16 C          63.2145   85.5267   16.7099 C.ar    1  UNL1        0.1674
     17 F          63.2638   86.5435   17.8116 F       1  UNL1       -0.2018
     18 C          61.9203   85.2463   16.0055 C.ar    1  UNL1        0.1671
     19 F          60.6753   85.9826   16.4026 F       1  UNL1       -0.2018
     20 C          61.8711   84.2294   14.9037 C.ar    1  UNL1        0.0299
     21 C          62.4895   86.1696   11.6728 C.3     1  UNL1        0.0758
     22 C          61.1294   86.0435   11.0528 C.3     1  UNL1        0.0215
     23 C          62.3316   86.2684   10.1844 C.3     1  UNL1        0.0215
     24 C          63.6322   87.4765   13.6057 C.3     1  UNL1        0.1201
     25 C          64.4281   91.2102   12.5213 C.ar    1  UNL1       -0.0194
     26 C          64.4703   89.9132   13.2736 C.ar    1  UNL1       -0.0067
     27 C          63.5900   88.7735   12.8534 C.ar    1  UNL1        0.0004
     28 C          62.6677   88.9310   11.6811 C.ar    1  UNL1        0.0343
     29 C          62.6256   90.2280   10.9289 C.ar    1  UNL1        0.1381
     30 C          63.5058   91.3676   11.3490 C.ar    1  UNL1        0.0326
     31 C          65.3083   92.3498   12.9415 C.3     1  UNL1        0.0290
     32 C          66.5825   92.6263   12.1998 C.3     1  UNL1        0.0367
     33 C          66.5731   93.5326   11.0046 C.3     1  UNL1        0.1426
     34 C          68.4161   92.3257    9.6274 C.3     1  UNL1        0.1741
     35 O          67.7680   93.5933   10.0999 O.3     1  UNL1       -0.3511
     36 O          61.7032   90.3855    9.7565 O.3     1  UNL1       -0.4728
     37 C          60.4041   89.6365    9.7183 C.3     1  UNL1        0.2373
     38 C          60.0562   88.7986    8.5237 C.3     1  UNL1        0.1894
     39 O          59.2328   87.5564    8.6931 O.3     1  UNL1       -0.3471
     40 C          59.2534   86.4930    7.6353 C.3     1  UNL1        0.1743
@<TRIPOS>BOND
     1    34    35    1
     2    35    33    1
     3    33    32    1
     4    32    31    1
     5    31    25    1
     6    25    26   ar
     7    26    27   ar
     8    27    24    1
     9    24     1    1
    10     1     2   am
    11     2     3    2
    12     2     4    1
    13     4     5    1
    14     5     6    1
    15     6     7    1
    16     7     8    1
    17     8     9    1
    18     9    10    1
    19     9    13    1
    20    13    14   ar
    21    14    15   ar
    22    15    16   ar
    23    16    17    1
    24    16    18   ar
    25    18    19    1
    26    18    20   ar
    27     1    21    1
    28    21    22    1
    29    22    23    1
    30    27    28   ar
    31    28    29   ar
    32    29    36    1
    33    36    37    1
    34    37    38    1
    35    38    39    1
    36    39    40    1
    37    29    30   ar
    38    30    25   ar
    39     9     4    1
    40    20    13   ar
    41    23    21    1
    42     6    11    1
    43    10    12    1
@<TRIPOS>MOLECULE
*****
 40 43 0 0 0
SMALL
GASTEIGER

@<TRIPOS>ATOM
      1 N          62.1042   88.3614   11.1159 N.am    1  UNL1       -0.2770
      2 C          62.0928   87.8243    9.7154 C.2     1  UNL1        0.2294
      3 O          62.7668   87.4064    9.6349 O.2     1  UNL1       -0.2747
      4 C          60.9416   88.1309    8.8039 C.3     1  UNL1        0.1208
      5 C          60.5770   89.5559    8.5096 C.3     1  UNL1        0.0804
      6 N          59.4258   89.8625    7.5981 N.3     1  UNL1       -0.2969
      7 C          58.6393   88.7442    6.9809 C.3     1  UNL1        0.0714
      8 C          59.0040   87.3193    7.2753 C.3     1  UNL1        0.0487
      9 C          60.1552   87.0127    8.1868 C.3     1  UNL1        0.1177
     10 O          59.7154   85.6199    7.8449 O.3     1  UNL1       -0.3821
     11 H          59.7992   90.4192    6.8293 H       1  UNL1        0.1233
     12 H          58.9553   85.6593    7.2437 H       1  UNL1        0.2107
     13 C          61.1536   86.2224    8.9795 C.ar    1  UNL1        0.0046
     14 C          62.3760   85.6699    8.3083 C.ar    1  UNL1        0.0004
     15 C          63.3744   84.8796    9.1011 C.ar    1  UNL1        0.0317
     16 C          63.1505   84.6418   10.5651 C.ar    1  UNL1        0.1674
     17 F          64.1490   83.8514   11.3579 F       1  UNL1       -0.2018
     18 C          61.9282   85.1942   11.2364 C.ar    1  UNL1        0.1671
     19 F          61.7042   84.9565   12.7004 F       1  UNL1       -0.2018
     20 C          60.9297   85.9846   10.4435 C.ar    1  UNL1        0.0299
     21 C          60.9645   89.2051   11.6049 C.3     1  UNL1        0.0758
     22 C          59.6642   89.3308   12.3422 C.3     1  UNL1        0.0215
     23 C          60.2905   90.5407   11.7147 C.3     1  UNL1        0.0215
     24 C          63.2554   88.0548   12.0274 C.3     1  UNL1        0.1201
     25 C          64.7109   91.2169   13.9335 C.ar    1  UNL1       -0.0194
     26 C          64.3568   90.2678   12.8272 C.ar    1  UNL1       -0.0067
     27 C          63.6094   89.0039   13.1338 C.ar    1  UNL1        0.0004
     28 C          63.2161   88.6891   14.5466 C.ar    1  UNL1        0.0343
     29 C          63.5701   89.6382   15.6529 C.ar    1  UNL1        0.1381
     30 C          64.3175   90.9021   15.3463 C.ar    1  UNL1        0.0326
     31 C          65.4583   92.4807   13.6269 C.3     1  UNL1        0.0290
     32 C          66.8186   92.4140   12.9983 C.3     1  UNL1        0.0367
     33 C          67.9861   91.9030   13.7894 C.3     1  UNL1        0.1426
     34 C          68.2807   93.5575   15.7708 C.3     1  UNL1        0.1741
     35 O          68.8410   92.8591   14.5674 O.3     1  UNL1       -0.3511
     36 O          63.1768   89.3234   17.0658 O.3     1  UNL1       -0.4728
     37 C          63.1759   87.9021   17.5452 C.3     1  UNL1        0.2373
     38 C          61.9948   87.0189   17.2714 C.3     1  UNL1        0.1894
     39 O          62.1843   85.5388   17.1192 O.3     1  UNL1       -0.3471
     40 C          62.9475   84.9970   15.9470 C.3     1  UNL1        0.1743
@<TRIPOS>BOND
     1    34    35    1
     2    35    33    1
     3    33    32    1
     4    32    31    1
     5    31    25    1
     6    25    26   ar
     7    26    27   ar
     8    27    24    1
     9    24     1    1
    10     1     2   am
    11     2     3    2
    12     2     4    1
    13     4     5    1
    14     5     6    1
    15     6     7    1
    16     7     8    1
    17     8     9    1
    18     9    10    1
    19     9    13    1
    20    13    14   ar
    21    14    15   ar
    22    15    16   ar
    23    16    17    1
    24    16    18   ar
    25    18    19    1
    26    18    20   ar
    27     1    21    1
    28    21    22    1
    29    22    23    1
    30    27    28   ar
    31    28    29   ar
    32    29    36    1
    33    36    37    1
    34    37    38    1
    35    38    39    1
    36    39    40    1
    37    29    30   ar
    38    30    25   ar
    39     9     4    1
    40    20    13   ar
    41    23    21    1
    42     6    11    1
    43    10    12    1
