@<TRIPOS>MOLECULE
*****
 38 43 0 0 0
SMALL
GASTEIGER

@<TRIPOS>ATOM
      1 C          63.3088   91.5465   10.0143 C.3     1  UNL1        0.1306
      2 N          64.0014   91.3947   11.3362 N.ar    1  UNL1       -0.3217
      3 C          64.9635   92.3715   11.9447 C.ar    1  UNL1        0.0654
      4 C          65.4906   93.6917   11.4662 C.ar    1  UNL1        0.0380
      5 C          66.4643   94.4605   12.3093 C.ar    1  UNL1        0.1013
      6 N          66.9109   93.9091   13.6308 N.ar    1  UNL1       -0.2323
      7 C          66.3838   92.5888   14.1093 C.ar    1  UNL1        0.1412
      8 CL         66.8304   92.0373   15.4308 Cl      1  UNL1       -0.0612
      9 C          65.4101   91.8200   13.2662 C.ar    1  UNL1        0.0635
     10 C          64.7240   90.5024   13.4744 C.ar    1  UNL1        0.1048
     11 N          64.7796   89.5081   14.5960 N.ar    1  UNL1       -0.2276
     12 C          63.9645   88.2509   14.5249 C.ar    1  UNL1        0.1567
     13 N          63.0938   87.9880   13.3320 N.ar    1  UNL1       -0.2131
     14 C          63.0382   88.9824   12.2104 C.ar    1  UNL1        0.1505
     15 C          63.8533   90.2396   12.2816 C.ar    1  UNL1        0.1100
     16 N          62.1676   88.7195   11.0176 N.pl3   1  UNL1       -0.2892
     17 C          62.4422   87.5388   10.1342 C.3     1  UNL1        0.1095
     18 C          61.5714   87.2760    8.9414 C.3     1  UNL1        0.0939
     19 N          60.4262   88.1939    8.6319 N.3     1  UNL1       -0.2695
     20 C          60.1516   89.3747    9.5153 C.3     1  UNL1        0.0939
     21 C          61.0223   89.6375   10.7081 C.3     1  UNL1        0.1095
     22 C          59.5555   87.9311    7.4391 C.3     1  UNL1        0.0769
     23 C          58.5233   88.9386    7.0273 C.3     1  UNL1        0.0437
     24 C          58.8772   90.0170    6.0466 C.ar    1  UNL1       -0.0184
     25 C          57.8122   90.9356    5.5253 C.ar    1  UNL1       -0.0018
     26 C          58.1661   92.0140    4.5446 C.ar    1  UNL1        0.0316
     27 C          59.5850   92.1737    4.0851 C.ar    1  UNL1        0.1674
     28 F          59.9389   93.2521    3.1044 F       1  UNL1       -0.2018
     29 C          60.6501   91.2550    4.6064 C.ar    1  UNL1        0.1671
     30 F          62.0690   91.4147    4.1469 F       1  UNL1       -0.2018
     31 C          60.2962   90.1767    5.5871 C.ar    1  UNL1        0.0277
     32 C          64.0201   87.2564   15.6466 C.3     1  UNL1        0.1390
     33 N          63.8396   85.7947   15.3626 N.3     1  UNL1       -0.2620
     34 C          62.6718   85.0560   15.9460 C.3     1  UNL1        0.1050
     35 C          62.4913   83.5942   15.6621 C.3     1  UNL1        0.1595
     36 O          63.4787   82.8712   14.7947 O.3     1  UNL1       -0.3508
     37 C          64.6465   83.6100   14.2113 C.3     1  UNL1        0.1595
     38 C          64.8269   85.0717   14.4953 C.3     1  UNL1        0.1050
@<TRIPOS>BOND
     1     1     2    1
     2     2     3   ar
     3     3     4   ar
     4     4     5   ar
     5     5     6   ar
     6     6     7   ar
     7     7     8    1
     8     7     9   ar
     9     9    10   ar
    10    10    11   ar
    11    11    12   ar
    12    12    32    1
    13    32    33    1
    14    33    34    1
    15    34    35    1
    16    35    36    1
    17    36    37    1
    18    37    38    1
    19    12    13   ar
    20    13    14   ar
    21    14    16    1
    22    16    17    1
    23    17    18    1
    24    18    19    1
    25    19    22    1
    26    22    23    1
    27    23    24    1
    28    24    25   ar
    29    25    26   ar
    30    26    27   ar
    31    27    28    1
    32    27    29   ar
    33    29    30    1
    34    29    31   ar
    35    19    20    1
    36    20    21    1
    37    14    15   ar
    38    15     2   ar
    39     9     3   ar
    40    15    10   ar
    41    38    33    1
    42    21    16    1
    43    31    24   ar
@<TRIPOS>MOLECULE
*****
 38 43 0 0 0
SMALL
GASTEIGER

@<TRIPOS>ATOM
      1 C          61.3829   85.4114    9.9810 C.3     1  UNL1        0.1306
      2 N          62.1884   85.6560   11.2225 N.ar    1  UNL1       -0.3217
      3 C          62.7889   84.6026   12.1056 C.ar    1  UNL1        0.0654
      4 C          62.7750   83.1044   12.0328 C.ar    1  UNL1        0.0380
      5 C          63.4787   82.2961   13.0822 C.ar    1  UNL1        0.1013
      6 N          64.1962   82.9858   14.2045 N.ar    1  UNL1       -0.2323
      7 C          64.2101   84.4840   14.2773 C.ar    1  UNL1        0.1412
      8 CL         64.9276   85.1738   15.3995 Cl      1  UNL1       -0.0612
      9 C          63.5064   85.2923   13.2278 C.ar    1  UNL1        0.0635
     10 C          63.3493   86.7720   13.0383 C.ar    1  UNL1        0.1048
     11 N          63.8428   87.9438   13.8341 N.ar    1  UNL1       -0.2276
     12 C          63.5217   89.3403   13.3906 C.ar    1  UNL1        0.1567
     13 N          62.7072   89.5651   12.1513 N.ar    1  UNL1       -0.2131
     14 C          62.2137   88.3933   11.3555 C.ar    1  UNL1        0.1505
     15 C          62.5348   86.9968   11.7990 C.ar    1  UNL1        0.1100
     16 N          61.3991   88.6180   10.1161 N.pl3   1  UNL1       -0.2892
     17 C          61.3822   87.5820    9.0316 C.3     1  UNL1        0.1095
     18 C          60.5676   87.8068    7.7923 C.3     1  UNL1        0.0939
     19 N          59.7699   89.0676    7.6375 N.3     1  UNL1       -0.2695
     20 C          59.7867   90.1037    8.7221 C.3     1  UNL1        0.0939
     21 C          60.6013   89.8789    9.9614 C.3     1  UNL1        0.1095
     22 C          58.9553   89.2924    6.3982 C.3     1  UNL1        0.0769
     23 C          58.7235   90.6866    5.8956 C.3     1  UNL1        0.0437
     24 C          59.6479   91.2787    4.8734 C.ar    1  UNL1       -0.0184
     25 C          59.1573   92.3576    3.9542 C.ar    1  UNL1       -0.0018
     26 C          60.0818   92.9498    2.9320 C.ar    1  UNL1        0.0316
     27 C          61.4968   92.4629    2.8291 C.ar    1  UNL1        0.1674
     28 F          62.4212   93.0551    1.8069 F       1  UNL1       -0.2018
     29 C          61.9875   91.3839    3.7484 C.ar    1  UNL1        0.1671
     30 F          63.4025   90.8970    3.6455 F       1  UNL1       -0.2018
     31 C          61.0630   90.7918    4.7705 C.ar    1  UNL1        0.0277
     32 C          64.0153   90.5121   14.1865 C.3     1  UNL1        0.1390
     33 N          65.1836   91.3142   13.6948 N.3     1  UNL1       -0.2620
     34 C          66.4621   91.3351   14.4788 C.3     1  UNL1        0.1050
     35 C          67.6304   92.1371   13.9870 C.3     1  UNL1        0.1595
     36 O          67.5201   92.9182   12.7113 O.3     1  UNL1       -0.3508
     37 C          66.2414   92.8973   11.9272 C.3     1  UNL1        0.1595
     38 C          65.0732   92.0953   12.4190 C.3     1  UNL1        0.1050
@<TRIPOS>BOND
     1     1     2    1
     2     2     3   ar
     3     3     4   ar
     4     4     5   ar
     5     5     6   ar
     6     6     7   ar
     7     7     8    1
     8     7     9   ar
     9     9    10   ar
    10    10    11   ar
    11    11    12   ar
    12    12    32    1
    13    32    33    1
    14    33    34    1
    15    34    35    1
    16    35    36    1
    17    36    37    1
    18    37    38    1
    19    12    13   ar
    20    13    14   ar
    21    14    16    1
    22    16    17    1
    23    17    18    1
    24    18    19    1
    25    19    22    1
    26    22    23    1
    27    23    24    1
    28    24    25   ar
    29    25    26   ar
    30    26    27   ar
    31    27    28    1
    32    27    29   ar
    33    29    30    1
    34    29    31   ar
    35    19    20    1
    36    20    21    1
    37    14    15   ar
    38    15     2   ar
    39     9     3   ar
    40    15    10   ar
    41    38    33    1
    42    21    16    1
    43    31    24   ar
@<TRIPOS>MOLECULE
*****
 38 43 0 0 0
SMALL
GASTEIGER

@<TRIPOS>ATOM
      1 C          63.2660   91.7891    9.5999 C.3     1  UNL1        0.1306
      2 N          63.9413   92.0233   10.9187 N.ar    1  UNL1       -0.3217
      3 C          65.0030   93.0459   11.1962 C.ar    1  UNL1        0.0654
      4 C          65.6662   94.0673   10.3205 C.ar    1  UNL1        0.0380
      5 C          66.7178   94.9733   10.8890 C.ar    1  UNL1        0.1013
      6 N          67.1062   94.8579   12.3333 N.ar    1  UNL1       -0.2323
      7 C          66.4430   93.8366   13.2090 C.ar    1  UNL1        0.1412
      8 CL         66.8314   93.7212   14.6532 Cl      1  UNL1       -0.0612
      9 C          65.3914   92.9306   12.6405 C.ar    1  UNL1        0.0635
     10 C          64.5698   91.8366   13.2554 C.ar    1  UNL1        0.1048
     11 N          64.5219   91.2786   14.6470 N.ar    1  UNL1       -0.2276
     12 C          63.5778   90.1598   14.9743 C.ar    1  UNL1        0.1567
     13 N          62.6817   89.5991   13.9102 N.ar    1  UNL1       -0.2131
     14 C          62.7295   90.1571   12.5187 C.ar    1  UNL1        0.1505
     15 C          63.6736   91.2758   12.1913 C.ar    1  UNL1        0.1100
     16 N          61.8334   89.5963   11.4546 N.pl3   1  UNL1       -0.2892
     17 C          62.4197   89.0918   10.1695 C.3     1  UNL1        0.1095
     18 C          61.5234   88.5310    9.1053 C.3     1  UNL1        0.0939
     19 N          60.0409   88.4748    9.3264 N.3     1  UNL1       -0.2695
     20 C          59.4545   88.9792   10.6116 C.3     1  UNL1        0.0939
     21 C          60.3507   89.5400   11.6756 C.3     1  UNL1        0.1095
     22 C          59.1447   87.9140    8.2623 C.3     1  UNL1        0.0769
     23 C          59.4292   86.5621    7.6778 C.3     1  UNL1        0.0437
     24 C          60.6686   85.8179    8.0776 C.ar    1  UNL1       -0.0184
     25 C          61.5585   85.2236    7.0265 C.ar    1  UNL1       -0.0018
     26 C          62.7980   84.4794    7.4264 C.ar    1  UNL1        0.0316
     27 C          63.1476   84.3295    8.8774 C.ar    1  UNL1        0.1674
     28 F          64.3871   83.5853    9.2772 F       1  UNL1       -0.2018
     29 C          62.2577   84.9238    9.9285 C.ar    1  UNL1        0.1671
     30 F          62.6073   84.7740   11.3795 F       1  UNL1       -0.2018
     31 C          61.0183   85.6680    9.5287 C.ar    1  UNL1        0.0277
     32 C          63.5300   89.6018   16.3659 C.3     1  UNL1        0.1390
     33 N          63.3908   88.1233   16.5768 N.3     1  UNL1       -0.2620
     34 C          64.0126   87.1653   15.6044 C.3     1  UNL1        0.1050
     35 C          63.8734   85.6867   15.8152 C.3     1  UNL1        0.1595
     36 O          63.1124   85.1662   16.9984 O.3     1  UNL1       -0.3508
     37 C          62.4907   86.1243   17.9708 C.3     1  UNL1        0.1595
     38 C          62.6299   87.6028   17.7600 C.3     1  UNL1        0.1050
@<TRIPOS>BOND
     1     1     2    1
     2     2     3   ar
     3     3     4   ar
     4     4     5   ar
     5     5     6   ar
     6     6     7   ar
     7     7     8    1
     8     7     9   ar
     9     9    10   ar
    10    10    11   ar
    11    11    12   ar
    12    12    32    1
    13    32    33    1
    14    33    34    1
    15    34    35    1
    16    35    36    1
    17    36    37    1
    18    37    38    1
    19    12    13   ar
    20    13    14   ar
    21    14    16    1
    22    16    17    1
    23    17    18    1
    24    18    19    1
    25    19    22    1
    26    22    23    1
    27    23    24    1
    28    24    25   ar
    29    25    26   ar
    30    26    27   ar
    31    27    28    1
    32    27    29   ar
    33    29    30    1
    34    29    31   ar
    35    19    20    1
    36    20    21    1
    37    14    15   ar
    38    15     2   ar
    39     9     3   ar
    40    15    10   ar
    41    38    33    1
    42    21    16    1
    43    31    24   ar
@<TRIPOS>MOLECULE
*****
 38 43 0 0 0
SMALL
GASTEIGER

@<TRIPOS>ATOM
      1 C          58.9921   93.7348   -0.3661 C.3     1  UNL1        0.1306
      2 N          60.4917   93.7387   -0.4012 N.ar    1  UNL1       -0.3217
      3 C          61.4006   93.2815    0.7010 C.ar    1  UNL1        0.0654
      4 C          61.1220   92.7252    2.0658 C.ar    1  UNL1        0.0380
      5 C          62.2591   92.3481    2.9684 C.ar    1  UNL1        0.1013
      6 N          63.6748   92.5273    2.5061 N.ar    1  UNL1       -0.2323
      7 C          63.9534   93.0837    1.1413 C.ar    1  UNL1        0.1412
      8 CL         65.3691   93.2629    0.6791 Cl      1  UNL1       -0.0612
      9 C          62.8162   93.4608    0.2387 C.ar    1  UNL1        0.0635
     10 C          62.7822   94.0288   -1.1492 C.ar    1  UNL1        0.1048
     11 N          63.8739   94.4118   -2.1039 N.ar    1  UNL1       -0.2276
     12 C          63.5289   94.9665   -3.4542 C.ar    1  UNL1        0.1567
     13 N          62.0922   95.1383   -3.8497 N.ar    1  UNL1       -0.2131
     14 C          61.0006   94.7553   -2.8950 C.ar    1  UNL1        0.1505
     15 C          61.3456   94.2006   -1.5447 C.ar    1  UNL1        0.1100
     16 N          59.5639   94.9271   -3.2905 N.pl3   1  UNL1       -0.2892
     17 C          58.8493   93.8265   -4.0171 C.3     1  UNL1        0.1095
     18 C          57.4126   93.9984   -4.4126 C.3     1  UNL1        0.0939
     19 N          56.6905   95.2708   -4.0815 N.3     1  UNL1       -0.2695
     20 C          57.4052   96.3714   -3.3549 C.3     1  UNL1        0.0939
     21 C          58.8418   96.1995   -2.9594 C.3     1  UNL1        0.1095
     22 C          55.2538   95.4426   -4.4770 C.3     1  UNL1        0.0769
     23 C          54.3374   96.2758   -3.6309 C.3     1  UNL1        0.0437
     24 C          52.8902   96.4104   -4.0013 C.ar    1  UNL1       -0.0184
     25 C          51.8712   96.7195   -2.9449 C.ar    1  UNL1       -0.0018
     26 C          50.4239   96.8541   -3.3154 C.ar    1  UNL1        0.0316
     27 C          49.9956   96.6796   -4.7423 C.ar    1  UNL1        0.1674
     28 F          48.5483   96.8142   -5.1127 F       1  UNL1       -0.2018
     29 C          51.0146   96.3705   -5.7988 C.ar    1  UNL1        0.1671
     30 F          50.5863   96.1960   -7.2257 F       1  UNL1       -0.2018
     31 C          52.4618   96.2359   -5.4283 C.ar    1  UNL1        0.0277
     32 C          64.6206   95.3495   -4.4090 C.3     1  UNL1        0.1390
     33 N          65.1328   94.3495   -5.4028 N.3     1  UNL1       -0.2620
     34 C          64.7636   92.9019   -5.2685 C.3     1  UNL1        0.1050
     35 C          65.2758   91.9019   -6.2622 C.3     1  UNL1        0.1595
     36 O          66.1573   92.3495   -7.3903 O.3     1  UNL1       -0.3508
     37 C          66.5266   93.7972   -7.5246 C.3     1  UNL1        0.1595
     38 C          66.0143   94.7971   -6.5308 C.3     1  UNL1        0.1050
@<TRIPOS>BOND
     1     1     2    1
     2     2     3   ar
     3     3     4   ar
     4     4     5   ar
     5     5     6   ar
     6     6     7   ar
     7     7     8    1
     8     7     9   ar
     9     9    10   ar
    10    10    11   ar
    11    11    12   ar
    12    12    32    1
    13    32    33    1
    14    33    34    1
    15    34    35    1
    16    35    36    1
    17    36    37    1
    18    37    38    1
    19    12    13   ar
    20    13    14   ar
    21    14    16    1
    22    16    17    1
    23    17    18    1
    24    18    19    1
    25    19    22    1
    26    22    23    1
    27    23    24    1
    28    24    25   ar
    29    25    26   ar
    30    26    27   ar
    31    27    28    1
    32    27    29   ar
    33    29    30    1
    34    29    31   ar
    35    19    20    1
    36    20    21    1
    37    14    15   ar
    38    15     2   ar
    39     9     3   ar
    40    15    10   ar
    41    38    33    1
    42    21    16    1
    43    31    24   ar
