@<TRIPOS>MOLECULE
*****
 39 43 0 0 0
SMALL
GASTEIGER

@<TRIPOS>ATOM
      1 N          63.1706   90.0032   13.8213 N.am    1  UNL1       -0.2844
      2 C          63.3458   88.5146   13.8775 C.2     1  UNL1        0.3080
      3 O          63.9790   87.8787   15.0795 O.2     1  UNL1       -0.2522
      4 N          62.8878   87.6618   12.7317 N.am    1  UNL1       -0.2418
      5 C          62.2410   88.1528   11.4706 C.3     1  UNL1        0.1053
      6 C          61.9495   86.9627   10.6052 C.3     1  UNL1        0.0553
      7 C          61.4828   88.1894    9.8789 C.3     1  UNL1        0.0073
      8 C          60.9030   87.7573    8.5647 C.3     1  UNL1        0.0004
      9 C          61.0113   86.2637    8.4788 C.3     1  UNL1        0.0004
     10 C          61.6581   85.7726    9.7400 C.3     1  UNL1        0.0073
     11 C          62.4163   85.7361   11.3317 C.ar    1  UNL1        0.0735
     12 N          62.3881   84.2816   10.9661 N.ar    1  UNL1       -0.2484
     13 C          62.9399   83.2590   11.9149 C.ar    1  UNL1        0.0807
     14 C          63.5197   83.6911   13.2291 C.ar    1  UNL1        0.0204
     15 C          63.5478   85.1457   13.5946 C.ar    1  UNL1        0.0177
     16 C          62.9961   86.1681   12.6459 C.ar    1  UNL1        0.0688
     17 H          62.7551   90.4206   13.0324 H       1  UNL1        0.1513
     18 C          62.9117   81.8045   11.5495 C.ar    1  UNL1        0.0139
     19 C          63.2555   81.3750   10.1540 C.ar    1  UNL1        0.0043
     20 C          63.2274   79.9206    9.7885 C.ar    1  UNL1        0.0366
     21 C          62.8555   78.8955   10.8186 C.ar    1  UNL1        0.1334
     22 O          62.8274   77.4410   10.4532 O.3     1  UNL1       -0.5055
     23 C          62.5117   79.3250   12.2141 C.ar    1  UNL1        0.0324
     24 C          62.5399   80.7795   12.5796 C.ar    1  UNL1       -0.0174
     25 C          62.1961   81.2090   13.9750 C.3     1  UNL1        0.0312
     26 H          63.0421   77.1727    9.5815 H       1  UNL1        0.2922
     27 C          63.6287   90.8561   14.9672 C.3     1  UNL1        0.1177
     28 C          67.7886   92.5722   14.9725 C.ar    1  UNL1        0.1219
     29 C          67.2904   91.8171   13.7761 C.ar    1  UNL1        0.0196
     30 C          65.9037   91.2450   13.7743 C.ar    1  UNL1       -0.0012
     31 C          65.0153   91.4281   14.9690 C.ar    1  UNL1       -0.0024
     32 C          65.5136   92.1833   16.1654 C.ar    1  UNL1       -0.0012
     33 C          66.9002   92.7553   16.1672 C.ar    1  UNL1        0.0196
     34 S          69.1752   93.1442   14.9743 S.O2    1  UNL1        0.0603
     35 O          68.7904   94.0736   16.0870 O.2     1  UNL1       -0.1530
     36 O          69.5600   92.2148   13.8616 O.2     1  UNL1       -0.1530
     37 C          70.8492   94.9841   15.7246 C.3     1  UNL1        0.1102
     38 N          70.5618   93.7162   14.9761 N.3     1  UNL1       -0.1779
     39 H          71.1754   92.9997   15.3641 H       1  UNL1        0.1488
@<TRIPOS>BOND
     1    37    38    1
     2    38    34    1
     3    34    35    2
     4    34    36    2
     5    34    28    1
     6    28    29   ar
     7    29    30   ar
     8    30    31   ar
     9    31    27    1
    10    27     1    1
    11     1     2   am
    12     2     3    2
    13     2     4   am
    14     4     5    1
    15     5     6    1
    16     6     7    1
    17     7     8    1
    18     8     9    1
    19     9    10    1
    20     6    11    1
    21    11    12   ar
    22    12    13   ar
    23    13    18    1
    24    18    19   ar
    25    19    20   ar
    26    20    21   ar
    27    21    22    1
    28    21    23   ar
    29    23    24   ar
    30    24    25    1
    31    13    14   ar
    32    14    15   ar
    33    15    16   ar
    34    31    32   ar
    35    32    33   ar
    36    33    28   ar
    37    16     4    1
    38    10     6    1
    39    16    11   ar
    40    24    18   ar
    41    38    39    1
    42     1    17    1
    43    22    26    1
@<TRIPOS>MOLECULE
*****
 39 43 0 0 0
SMALL
GASTEIGER

@<TRIPOS>ATOM
      1 N          59.3352   87.9650    8.1465 N.am    1  UNL1       -0.2844
      2 C          60.1762   88.9840    8.8566 C.2     1  UNL1        0.3080
      3 O          60.0781   90.4323    8.4788 O.2     1  UNL1       -0.2522
      4 N          61.1154   88.5547    9.9444 N.am    1  UNL1       -0.2418
      5 C          61.3205   87.1499   10.4286 C.3     1  UNL1        0.1053
      6 C          62.3463   87.1817   11.5226 C.3     1  UNL1        0.0553
      7 C          61.9174   85.7573   11.3307 C.3     1  UNL1        0.0073
      8 C          62.6781   84.9088   12.3061 C.3     1  UNL1        0.0004
      9 C          63.5772   85.8088   13.1008 C.3     1  UNL1        0.0004
     10 C          63.3721   87.2136   12.6165 C.3     1  UNL1        0.0073
     11 C          62.7752   88.6063   11.7145 C.ar    1  UNL1        0.0735
     12 N          63.7603   89.2404   12.6513 N.ar    1  UNL1       -0.2484
     13 C          63.9845   90.7231   12.6128 C.ar    1  UNL1        0.0807
     14 C          63.2238   91.5716   11.6374 C.ar    1  UNL1        0.0204
     15 C          62.2388   90.9374   10.7006 C.ar    1  UNL1        0.0177
     16 C          62.0145   89.4548   10.7391 C.ar    1  UNL1        0.0688
     17 H          59.3996   87.0144    8.3944 H       1  UNL1        0.1513
     18 C          64.9695   91.3572   13.5497 C.ar    1  UNL1        0.0139
     19 C          66.1656   92.0794   13.0041 C.ar    1  UNL1        0.0043
     20 C          67.1506   92.7135   13.9408 C.ar    1  UNL1        0.0366
     21 C          66.9394   92.6254   15.4234 C.ar    1  UNL1        0.1334
     22 O          67.9244   93.2596   16.3602 O.3     1  UNL1       -0.5055
     23 C          65.7433   91.9032   15.9690 C.ar    1  UNL1        0.0324
     24 C          64.7583   91.2691   15.0321 C.ar    1  UNL1       -0.0174
     25 C          63.5621   90.5469   15.5777 C.3     1  UNL1        0.0312
     26 H          68.6716   93.7107   16.0194 H       1  UNL1        0.2922
     27 C          58.3959   88.3943    7.0585 C.3     1  UNL1        0.1177
     28 C          59.4572   91.8773    4.4142 C.ar    1  UNL1        0.1219
     29 C          58.0343   91.6638    4.8382 C.ar    1  UNL1        0.0196
     30 C          57.6805   90.5028    5.7196 C.ar    1  UNL1       -0.0012
     31 C          58.7497   89.5553    6.1771 C.ar    1  UNL1       -0.0024
     32 C          60.1726   89.7688    5.7532 C.ar    1  UNL1       -0.0012
     33 C          60.5264   90.9298    4.8717 C.ar    1  UNL1        0.0196
     34 S          59.8110   93.0382    3.5328 S.O2    1  UNL1        0.0603
     35 O          60.2536   92.0885    2.4595 O.2     1  UNL1       -0.1530
     36 O          59.3685   93.9880    4.6061 O.2     1  UNL1       -0.1530
     37 C          59.8842   94.1361    1.1791 C.3     1  UNL1        0.1102
     38 N          60.1648   94.1992    2.6514 N.3     1  UNL1       -0.1779
     39 H          59.6596   95.0082    3.0130 H       1  UNL1        0.1488
@<TRIPOS>BOND
     1    37    38    1
     2    38    34    1
     3    34    35    2
     4    34    36    2
     5    34    28    1
     6    28    29   ar
     7    29    30   ar
     8    30    31   ar
     9    31    27    1
    10    27     1    1
    11     1     2   am
    12     2     3    2
    13     2     4   am
    14     4     5    1
    15     5     6    1
    16     6     7    1
    17     7     8    1
    18     8     9    1
    19     9    10    1
    20     6    11    1
    21    11    12   ar
    22    12    13   ar
    23    13    18    1
    24    18    19   ar
    25    19    20   ar
    26    20    21   ar
    27    21    22    1
    28    21    23   ar
    29    23    24   ar
    30    24    25    1
    31    13    14   ar
    32    14    15   ar
    33    15    16   ar
    34    31    32   ar
    35    32    33   ar
    36    33    28   ar
    37    16     4    1
    38    10     6    1
    39    16    11   ar
    40    24    18   ar
    41    38    39    1
    42     1    17    1
    43    22    26    1
@<TRIPOS>MOLECULE
*****
 39 43 0 0 0
SMALL
GASTEIGER

@<TRIPOS>ATOM
      1 N          63.0950   91.3342   10.4712 N.am    1  UNL1       -0.2844
      2 C          63.2934   90.0467   11.2147 C.2     1  UNL1        0.3080
      3 O          64.1621   90.0127   12.4371 O.2     1  UNL1       -0.2522
      4 N          62.6232   88.7932   10.7359 N.am    1  UNL1       -0.2418
      5 C          61.7308   88.6736    9.5362 C.3     1  UNL1        0.1053
      6 C          61.2837   87.2456    9.4314 C.3     1  UNL1        0.0553
      7 C          60.6677   88.0086    8.2964 C.3     1  UNL1        0.0073
      8 C          59.8399   87.0522    7.4902 C.3     1  UNL1        0.0004
      9 C          59.9443   85.6980    8.1270 C.3     1  UNL1        0.0004
     10 C          60.8367   85.8176    9.3267 C.3     1  UNL1        0.0073
     11 C          61.8999   86.4826   10.5665 C.ar    1  UNL1        0.0735
     12 N          61.8140   85.0404   10.9700 N.ar    1  UNL1       -0.2484
     13 C          62.5560   84.5547   12.1798 C.ar    1  UNL1        0.0807
     14 C          63.3838   85.5112   12.9860 C.ar    1  UNL1        0.0204
     15 C          63.4696   86.9533   12.5824 C.ar    1  UNL1        0.0177
     16 C          62.7277   87.4390   11.3726 C.ar    1  UNL1        0.0688
     17 H          62.5248   91.3566    9.6689 H       1  UNL1        0.1513
     18 C          62.4702   83.1126   12.5834 C.ar    1  UNL1        0.0139
     19 C          61.8169   82.7341   13.8795 C.ar    1  UNL1        0.0043
     20 C          61.7310   81.2921   14.2831 C.ar    1  UNL1        0.0366
     21 C          62.2985   80.2284   13.3905 C.ar    1  UNL1        0.1334
     22 O          62.2127   78.7862   13.7941 O.3     1  UNL1       -0.5055
     23 C          62.9518   80.6068   12.0944 C.ar    1  UNL1        0.0324
     24 C          63.0377   82.0490   11.6908 C.ar    1  UNL1       -0.0174
     25 C          63.6909   82.4275   10.3947 C.3     1  UNL1        0.0312
     26 H          61.8046   78.5498   14.6038 H       1  UNL1        0.2922
     27 C          63.7652   92.5879   10.9501 C.3     1  UNL1        0.1177
     28 C          67.1814   92.3389   13.8685 C.ar    1  UNL1        0.1219
     29 C          67.4571   92.5084   12.4039 C.ar    1  UNL1        0.0196
     30 C          66.3184   92.5914   11.4311 C.ar    1  UNL1       -0.0012
     31 C          64.9040   92.5049   11.9229 C.ar    1  UNL1       -0.0024
     32 C          64.6282   92.3354   13.3876 C.ar    1  UNL1       -0.0012
     33 C          65.7670   92.2524   14.3604 C.ar    1  UNL1        0.0196
     34 S          68.3201   92.2559   14.8413 S.O2    1  UNL1        0.0603
     35 O          67.3503   92.3320   15.9831 O.2     1  UNL1       -0.1530
     36 O          69.2900   92.1798   13.6996 O.2     1  UNL1       -0.1530
     37 C          70.0343   93.4264   16.4040 C.3     1  UNL1        0.1102
     38 N          69.4589   92.1729   15.8142 N.3     1  UNL1       -0.1779
     39 H          69.1380   91.6005   16.5950 H       1  UNL1        0.1488
@<TRIPOS>BOND
     1    37    38    1
     2    38    34    1
     3    34    35    2
     4    34    36    2
     5    34    28    1
     6    28    29   ar
     7    29    30   ar
     8    30    31   ar
     9    31    27    1
    10    27     1    1
    11     1     2   am
    12     2     3    2
    13     2     4   am
    14     4     5    1
    15     5     6    1
    16     6     7    1
    17     7     8    1
    18     8     9    1
    19     9    10    1
    20     6    11    1
    21    11    12   ar
    22    12    13   ar
    23    13    18    1
    24    18    19   ar
    25    19    20   ar
    26    20    21   ar
    27    21    22    1
    28    21    23   ar
    29    23    24   ar
    30    24    25    1
    31    13    14   ar
    32    14    15   ar
    33    15    16   ar
    34    31    32   ar
    35    32    33   ar
    36    33    28   ar
    37    16     4    1
    38    10     6    1
    39    16    11   ar
    40    24    18   ar
    41    38    39    1
    42     1    17    1
    43    22    26    1
@<TRIPOS>MOLECULE
*****
 39 43 0 0 0
SMALL
GASTEIGER

@<TRIPOS>ATOM
      1 N          62.9230   89.3296   12.6630 N.am    1  UNL1       -0.2844
      2 C          62.7341   88.0177   11.9608 C.2     1  UNL1        0.3080
      3 O          62.2068   87.9876   10.5568 O.2     1  UNL1       -0.2522
      4 N          63.0723   86.7359   12.6624 N.am    1  UNL1       -0.2418
      5 C          63.6057   86.6092   14.0587 C.3     1  UNL1        0.1053
      6 C          63.7996   85.1507   14.3503 C.3     1  UNL1        0.0553
      7 C          64.2131   85.9255   15.5663 C.3     1  UNL1        0.0073
      8 C          64.6626   84.9458   16.6095 C.3     1  UNL1        0.0004
      9 C          64.5269   83.5655   16.0382 C.3     1  UNL1        0.0004
     10 C          63.9936   83.6921   14.6419 C.3     1  UNL1        0.0073
     11 C          63.3861   84.3759   13.1342 C.ar    1  UNL1        0.0735
     12 N          63.3608   82.9048   12.8421 N.ar    1  UNL1       -0.2484
     13 C          62.8860   82.4134   11.5067 C.ar    1  UNL1        0.0807
     14 C          62.4365   83.3932   10.4636 C.ar    1  UNL1        0.0204
     15 C          62.4618   84.8642   10.7558 C.ar    1  UNL1        0.0177
     16 C          62.9366   85.3556   12.0911 C.ar    1  UNL1        0.0688
     17 H          63.2691   89.3493   13.5845 H       1  UNL1        0.1513
     18 C          62.8607   80.9424   11.2145 C.ar    1  UNL1        0.0139
     19 C          63.1070   80.4506    9.8190 C.ar    1  UNL1        0.0043
     20 C          63.0817   78.9796    9.5268 C.ar    1  UNL1        0.0366
     21 C          62.8101   78.0003   10.6302 C.ar    1  UNL1        0.1334
     22 O          62.7848   76.5293   10.3380 O.3     1  UNL1       -0.5055
     23 C          62.5638   78.4921   12.0257 C.ar    1  UNL1        0.0324
     24 C          62.5891   79.9632   12.3179 C.ar    1  UNL1       -0.0174
     25 C          62.3428   80.4550   13.7134 C.3     1  UNL1        0.0312
     26 H          62.9386   76.2221    9.4663 H       1  UNL1        0.2922
     27 C          62.5848   90.6115   11.9613 C.3     1  UNL1        0.1177
     28 C          65.8661   93.4243   10.7081 C.ar    1  UNL1        0.1219
     29 C          64.8369   92.9809    9.7110 C.ar    1  UNL1        0.0196
     30 C          63.7431   92.0433   10.1287 C.ar    1  UNL1       -0.0012
     31 C          63.6785   91.5491   11.5435 C.ar    1  UNL1       -0.0024
     32 C          64.7077   91.9925   12.5406 C.ar    1  UNL1       -0.0012
     33 C          65.8015   92.9301   12.1229 C.ar    1  UNL1        0.0196
     34 S          66.9599   94.3619   10.2903 S.O2    1  UNL1        0.0603
     35 O          65.9832   95.5003   10.2881 O.2     1  UNL1       -0.1530
     36 O          67.9366   93.2235   10.2925 O.2     1  UNL1       -0.1530
     37 C          67.7230   96.5381    9.0937 C.3     1  UNL1        0.1102
     38 N          68.0537   95.2995    9.8726 N.3     1  UNL1       -0.1779
     39 H          68.5219   95.6045   10.7259 H       1  UNL1        0.1488
@<TRIPOS>BOND
     1    37    38    1
     2    38    34    1
     3    34    35    2
     4    34    36    2
     5    34    28    1
     6    28    29   ar
     7    29    30   ar
     8    30    31   ar
     9    31    27    1
    10    27     1    1
    11     1     2   am
    12     2     3    2
    13     2     4   am
    14     4     5    1
    15     5     6    1
    16     6     7    1
    17     7     8    1
    18     8     9    1
    19     9    10    1
    20     6    11    1
    21    11    12   ar
    22    12    13   ar
    23    13    18    1
    24    18    19   ar
    25    19    20   ar
    26    20    21   ar
    27    21    22    1
    28    21    23   ar
    29    23    24   ar
    30    24    25    1
    31    13    14   ar
    32    14    15   ar
    33    15    16   ar
    34    31    32   ar
    35    32    33   ar
    36    33    28   ar
    37    16     4    1
    38    10     6    1
    39    16    11   ar
    40    24    18   ar
    41    38    39    1
    42     1    17    1
    43    22    26    1
