@<TRIPOS>MOLECULE
*****
 45 49 0 0 0
SMALL
GASTEIGER

@<TRIPOS>ATOM
      1 C          63.3072   90.7401   12.3153 C.3     1  UNL1        0.0468
      2 C          62.4710   90.3305   10.4341 C.3     1  UNL1        0.0069
      3 C          63.1631   90.4934   13.2362 C.3     1  UNL1        0.0500
      4 C          63.5838   90.7147   14.0752 C.3     1  UNL1        0.1694
      5 C          64.4313   91.2643   15.0322 C.3     1  UNL1        0.0435
      6 C          64.6641   91.2428   16.5139 C.3     1  UNL1        0.0040
      7 C          64.4710   91.4111   14.2206 C.3     1  UNL1        0.0038
      8 C          62.4814   89.7622   14.5118 C.3     1  UNL1        0.0001
      9 C          64.5046   91.5577   13.3763 C.3     1  UNL1        0.0001
     10 C          65.0350   92.0210   13.1302 C.3     1  UNL1        0.0005
     11 C          65.6270   92.5350   12.8787 C.3     1  UNL1        0.0093
     12 C          66.7896   93.4815   12.8289 C.3     1  UNL1        0.0082
     13 C          67.2839   93.6827   14.2307 C.3     1  UNL1        0.0645
     14 C          66.4268   92.8605   15.1469 C.2     1  UNL1        0.1504
     15 O          66.5688   92.7645   16.6371 O.2     1  UNL1       -0.2961
     16 C          65.4028   92.1512   14.3113 C.3     1  UNL1        0.0610
     17 C          64.6706   91.8699   12.1174 C.3     1  UNL1        0.0276
     18 C          65.6198   92.8786   10.4080 C.3     1  UNL1        0.0025
     19 C          63.9317   91.3103   11.8518 C.3     1  UNL1        0.1141
     20 O          63.5903   91.3418    9.6787 O.3     1  UNL1       -0.3841
     21 H          62.8403   90.7665    9.4609 H       1  UNL1        0.2103
     22 C          60.2018   89.7035   11.9582 C.2     1  UNL1       -0.0048
     23 C          61.6832   89.4932   11.8531 C.2     1  UNL1       -0.0243
     24 O          62.6347   89.7060   15.7846 O.3     1  UNL1       -0.4516
     25 C          63.2082   88.4244   16.3121 C.2     1  UNL1        0.3284
     26 O          62.9885   88.0380   17.7447 O.2     1  UNL1       -0.2491
     27 C          64.0014   87.5290   15.4071 C.3     1  UNL1        0.1743
     28 S          63.9970   86.0454   15.6279 S.3     1  UNL1       -0.0621
     29 C          64.0461   85.1123   14.4545 C.ar    1  UNL1        0.2119
     30 N          64.7461   83.7863   14.4111 N.ar    1  UNL1       -0.1874
     31 C          64.5364   83.1958   13.0482 C.ar    1  UNL1        0.2194
     32 N          65.0638   81.8762   12.5685 N.pl3   1  UNL1       -0.3273
     33 N          63.7068   84.1569   12.2494 N.ar    1  UNL1       -0.1620
     34 C          63.2588   83.9668   10.8305 C.2     1  UNL1        0.2826
     35 O          63.6412   82.7235   10.0834 O.2     1  UNL1       -0.2651
     36 N          63.4037   85.3413   13.1185 N.ar    1  UNL1       -0.1340
     37 H          65.6019   81.3129   13.1705 H       1  UNL1        0.1452
     38 H          64.8717   81.5732   11.6517 H       1  UNL1        0.1452
     39 C          62.4287   85.0201   10.1587 C.ar    1  UNL1        0.0580
     40 C          61.4015   85.7799   10.9446 C.ar    1  UNL1        0.0045
     41 C          60.5713   86.8332   10.2727 C.ar    1  UNL1       -0.0041
     42 C          60.7683   87.1267    8.8150 C.ar    1  UNL1       -0.0218
     43 C          59.9381   88.1800    8.1431 C.3     1  UNL1        0.0310
     44 C          61.7955   86.3669    8.0290 C.ar    1  UNL1       -0.0041
     45 C          62.6257   85.3136    8.7008 C.ar    1  UNL1        0.0045
@<TRIPOS>BOND
     1    22    23    2
     2    23     1    1
     3     1     2    1
     4     1     3    1
     5     3     4    1
     6     4    24    1
     7    24    25    1
     8    25    26    2
     9    25    27    1
    10    27    28    1
    11    28    29    1
    12    29    30   ar
    13    30    31   ar
    14    31    32    1
    15    31    33   ar
    16    33    34   am
    17    34    35    2
    18    34    39    1
    19    39    40   ar
    20    40    41   ar
    21    41    42   ar
    22    42    43    1
    23    42    44   ar
    24    44    45   ar
    25    33    36   ar
    26     4     5    1
    27     5     6    1
    28     5     7    1
    29     7     8    1
    30     7     9    1
    31     9    10    1
    32    11    10    1
    33    11    12    1
    34    12    13    1
    35    13    14    1
    36    14    15    2
    37    16    14    1
    38    11    17    1
    39    17    18    1
    40    17    19    1
    41    19    20    1
    42    19     1    1
    43    36    29   ar
    44    16     5    1
    45    45    39   ar
    46    16    11    1
    47    32    37    1
    48    32    38    1
    49    20    21    1
@<TRIPOS>MOLECULE
*****
 45 49 0 0 0
SMALL
GASTEIGER

@<TRIPOS>ATOM
      1 C          65.5505   91.5953   13.6595 C.3     1  UNL1        0.0468
      2 C          67.4701   92.4172   13.8725 C.3     1  UNL1        0.0069
      3 C          64.8854   91.1676   14.2112 C.3     1  UNL1        0.0500
      4 C          64.0055   90.8032   14.0597 C.3     1  UNL1        0.1694
      5 C          62.8196   90.4043   13.4509 C.3     1  UNL1        0.0435
      6 C          61.5189   89.7375   13.7879 C.3     1  UNL1        0.0040
      7 C          63.4491   90.7772   13.0682 C.3     1  UNL1        0.0038
      8 C          64.2032   90.5533   15.5469 C.3     1  UNL1        0.0001
      9 C          64.1078   91.1648   12.6792 C.3     1  UNL1        0.0001
     10 C          64.0415   91.3015   11.9488 C.3     1  UNL1        0.0005
     11 C          63.9491   91.4435   11.1430 C.3     1  UNL1        0.0093
     12 C          63.4122   91.5193    9.7445 C.3     1  UNL1        0.0082
     13 C          62.0456   90.9009    9.7385 C.3     1  UNL1        0.0645
     14 C          61.7379   90.4429   11.1333 C.2     1  UNL1        0.1504
     15 O          60.4754   89.7680   11.5813 O.2     1  UNL1       -0.2961
     16 C          62.9143   90.7782   12.0014 C.3     1  UNL1        0.0610
     17 C          65.0324   91.7479   11.9617 C.3     1  UNL1        0.0276
     18 C          65.9290   92.5728   10.1297 C.3     1  UNL1        0.0025
     19 C          65.6114   91.8357   12.7276 C.3     1  UNL1        0.1141
     20 O          67.5191   92.8137   12.2334 O.3     1  UNL1       -0.3841
     21 H          68.0655   92.8791   13.0323 H       1  UNL1        0.2103
     22 C          66.7646   92.7498   16.4948 C.2     1  UNL1       -0.0048
     23 C          66.7259   91.7325   15.3932 C.2     1  UNL1       -0.0243
     24 O          63.1090   89.9784   15.8916 O.3     1  UNL1       -0.4516
     25 C          63.4420   88.5821   16.3266 C.2     1  UNL1        0.3284
     26 O          63.0605   88.1132   17.6995 O.2     1  UNL1       -0.2491
     27 C          64.1563   87.6546   15.3890 C.3     1  UNL1        0.1743
     28 S          64.1046   86.1727   15.6156 S.3     1  UNL1       -0.0621
     29 C          64.1162   85.2341   14.4455 C.ar    1  UNL1        0.2119
     30 N          64.8100   83.9055   14.3878 N.ar    1  UNL1       -0.1874
     31 C          64.5586   83.3096   13.0344 C.ar    1  UNL1        0.2194
     32 N          65.0671   81.9859   12.5455 N.pl3   1  UNL1       -0.3273
     33 N          63.7093   84.2701   12.2556 N.ar    1  UNL1       -0.1620
     34 C          63.2195   84.0753   10.8513 C.2     1  UNL1        0.2826
     35 O          63.5755   82.8272   10.0992 O.2     1  UNL1       -0.2651
     36 N          63.4359   85.4595   13.1278 N.ar    1  UNL1       -0.1340
     37 H          65.6206   81.4234   13.1341 H       1  UNL1        0.1452
     38 H          64.8473   81.6796   11.6361 H       1  UNL1        0.1452
     39 C          62.3737   85.1285   10.1992 C.ar    1  UNL1        0.0580
     40 C          62.4991   85.3857    8.7268 C.ar    1  UNL1        0.0045
     41 C          61.6533   86.4390    8.0747 C.ar    1  UNL1       -0.0041
     42 C          60.6821   87.2351    8.8951 C.ar    1  UNL1       -0.0218
     43 C          59.8362   88.2884    8.2430 C.3     1  UNL1        0.0310
     44 C          60.5567   86.9779   10.3676 C.ar    1  UNL1       -0.0041
     45 C          61.4025   85.9246   11.0197 C.ar    1  UNL1        0.0045
@<TRIPOS>BOND
     1    22    23    2
     2    23     1    1
     3     1     2    1
     4     1     3    1
     5     3     4    1
     6     4    24    1
     7    24    25    1
     8    25    26    2
     9    25    27    1
    10    27    28    1
    11    28    29    1
    12    29    30   ar
    13    30    31   ar
    14    31    32    1
    15    31    33   ar
    16    33    34   am
    17    34    35    2
    18    34    39    1
    19    39    40   ar
    20    40    41   ar
    21    41    42   ar
    22    42    43    1
    23    42    44   ar
    24    44    45   ar
    25    33    36   ar
    26     4     5    1
    27     5     6    1
    28     5     7    1
    29     7     8    1
    30     7     9    1
    31     9    10    1
    32    11    10    1
    33    11    12    1
    34    12    13    1
    35    13    14    1
    36    14    15    2
    37    16    14    1
    38    11    17    1
    39    17    18    1
    40    17    19    1
    41    19    20    1
    42    19     1    1
    43    36    29   ar
    44    16     5    1
    45    45    39   ar
    46    16    11    1
    47    32    37    1
    48    32    38    1
    49    20    21    1
@<TRIPOS>MOLECULE
*****
 45 49 0 0 0
SMALL
GASTEIGER

@<TRIPOS>ATOM
      1 C          60.8347   86.5911    8.8394 C.3     1  UNL1        0.0468
      2 C          59.8735   86.8497    6.9914 C.3     1  UNL1        0.0069
      3 C          60.8287   86.9923    9.7162 C.3     1  UNL1        0.0500
      4 C          61.2985   86.8315   10.5429 C.3     1  UNL1        0.1694
      5 C          62.1509   86.2973   11.5042 C.3     1  UNL1        0.0435
      6 C          62.5414   86.4997   12.9383 C.3     1  UNL1        0.0040
      7 C          62.0810   86.0270   10.7271 C.3     1  UNL1        0.0038
      8 C          60.4055   88.0077   10.9064 C.3     1  UNL1        0.0001
      9 C          62.0016   85.7532    9.9183 C.3     1  UNL1        0.0001
     10 C          62.4266   85.1770    9.7088 C.3     1  UNL1        0.0005
     11 C          62.9040   84.5404    9.4972 C.3     1  UNL1        0.0093
     12 C          63.8985   83.4175    9.5080 C.3     1  UNL1        0.0082
     13 C          64.5038   83.3476   10.8786 C.3     1  UNL1        0.0645
     14 C          63.8835   84.4273   11.7150 C.2     1  UNL1        0.1504
     15 O          64.1969   84.7187   13.1526 O.2     1  UNL1       -0.2961
     16 C          62.8947   85.1645   10.8612 C.3     1  UNL1        0.0610
     17 C          61.9830   85.2343    8.7182 C.3     1  UNL1        0.0276
     18 C          62.5809   83.8397    7.1251 C.3     1  UNL1        0.0025
     19 C          61.3128   85.8629    8.4260 C.3     1  UNL1        0.1141
     20 O          60.7402   85.5661    6.3227 O.3     1  UNL1       -0.3841
     21 H          60.0666   86.2189    6.0758 H       1  UNL1        0.2103
     22 C          59.4769   89.3272    7.6081 C.2     1  UNL1       -0.0048
     23 C          59.3773   88.0074    8.3139 C.2     1  UNL1       -0.0243
     24 O          60.7007   88.2260   12.1359 O.3     1  UNL1       -0.4516
     25 C          60.0881   89.5491   11.7836 C.2     1  UNL1        0.3284
     26 O          58.6899   89.8689   12.2228 O.2     1  UNL1       -0.2491
     27 C          60.8736   90.5524   10.9923 C.3     1  UNL1        0.1743
     28 S          62.3177   90.2955   10.6784 S.3     1  UNL1       -0.0621
     29 C          63.3898   90.8678   11.5576 C.ar    1  UNL1        0.2119
     30 N          63.7153   90.4248   12.9533 N.ar    1  UNL1       -0.1874
     31 C          64.8512   91.2668   13.4538 C.ar    1  UNL1        0.2194
     32 N          65.4972   91.1635   14.8036 N.pl3   1  UNL1       -0.3273
     33 N          65.2277   92.2303   12.3676 N.ar    1  UNL1       -0.1620
     34 C          66.3164   93.2597   12.4405 C.2     1  UNL1        0.2826
     35 O          67.1426   93.3906   13.6856 O.2     1  UNL1       -0.2651
     36 N          64.3245   91.9838   11.1956 N.ar    1  UNL1       -0.1340
     37 H          65.1779   90.4953   15.4523 H       1  UNL1        0.1452
     38 H          66.2405   91.7639   15.0408 H       1  UNL1        0.1452
     39 C          66.5787   94.1581   11.2683 C.ar    1  UNL1        0.0580
     40 C          67.2579   93.6165   10.0455 C.ar    1  UNL1        0.0045
     41 C          67.5203   94.5149    8.8733 C.ar    1  UNL1       -0.0041
     42 C          67.1033   95.9549    8.9239 C.ar    1  UNL1       -0.0218
     43 C          67.3656   96.8534    7.7517 C.3     1  UNL1        0.0310
     44 C          66.4241   96.4965   10.1468 C.ar    1  UNL1       -0.0041
     45 C          66.1617   95.5981   11.3190 C.ar    1  UNL1        0.0045
@<TRIPOS>BOND
     1    22    23    2
     2    23     1    1
     3     1     2    1
     4     1     3    1
     5     3     4    1
     6     4    24    1
     7    24    25    1
     8    25    26    2
     9    25    27    1
    10    27    28    1
    11    28    29    1
    12    29    30   ar
    13    30    31   ar
    14    31    32    1
    15    31    33   ar
    16    33    34   am
    17    34    35    2
    18    34    39    1
    19    39    40   ar
    20    40    41   ar
    21    41    42   ar
    22    42    43    1
    23    42    44   ar
    24    44    45   ar
    25    33    36   ar
    26     4     5    1
    27     5     6    1
    28     5     7    1
    29     7     8    1
    30     7     9    1
    31     9    10    1
    32    11    10    1
    33    11    12    1
    34    12    13    1
    35    13    14    1
    36    14    15    2
    37    16    14    1
    38    11    17    1
    39    17    18    1
    40    17    19    1
    41    19    20    1
    42    19     1    1
    43    36    29   ar
    44    16     5    1
    45    45    39   ar
    46    16    11    1
    47    32    37    1
    48    32    38    1
    49    20    21    1
@<TRIPOS>MOLECULE
*****
 45 49 0 0 0
SMALL
GASTEIGER

@<TRIPOS>ATOM
      1 C          62.7576   85.4300   11.7929 C.3     1  UNL1        0.0468
      2 C          64.0539   84.6201   13.2316 C.3     1  UNL1        0.0069
      3 C          62.0521   86.0855   11.7475 C.3     1  UNL1        0.0500
      4 C          61.4800   86.4244   11.0490 C.3     1  UNL1        0.1694
      5 C          60.8748   86.6387    9.8145 C.3     1  UNL1        0.0435
      6 C          59.7992   87.4759    9.1883 C.3     1  UNL1        0.0040
      7 C          61.4855   86.1017    9.9585 C.3     1  UNL1        0.0038
      8 C          61.0129   87.2194   12.2585 C.3     1  UNL1        0.0001
      9 C          62.1197   85.5468   10.1175 C.3     1  UNL1        0.0001
     10 C          62.3713   85.1414    9.5441 C.3     1  UNL1        0.0005
     11 C          62.6350   84.7035    8.8985 C.3     1  UNL1        0.0093
     12 C          62.8213   84.1273    7.5262 C.3     1  UNL1        0.0082
     13 C          61.8388   84.7911    6.6075 C.3     1  UNL1        0.0645
     14 C          61.0453   85.7775    7.4120 C.2     1  UNL1        0.1504
     15 O          59.9517   86.6627    6.8918 O.2     1  UNL1       -0.2961
     16 C          61.5373   85.7234    8.8279 C.3     1  UNL1        0.0610
     17 C          63.0802   84.6652   10.2164 C.3     1  UNL1        0.0276
     18 C          64.4774   83.1291    9.4893 C.3     1  UNL1        0.0025
     19 C          63.1835   84.8416   11.1587 C.3     1  UNL1        0.1141
     20 O          64.7611   83.6136   12.0771 O.3     1  UNL1       -0.3841
     21 H          64.8274   83.8257   13.0214 H       1  UNL1        0.2103
     22 C          63.8752   86.7282   14.6057 C.2     1  UNL1       -0.0048
     23 C          62.8941   85.8952   13.8352 C.2     1  UNL1       -0.0243
     24 O          60.0830   87.9604   11.7762 O.3     1  UNL1       -0.4516
     25 C          60.5751   89.3491   12.0576 C.2     1  UNL1        0.3284
     26 O          60.7572   89.8075   13.4742 O.2     1  UNL1       -0.2491
     27 C          60.8851   90.2794   10.9226 C.3     1  UNL1        0.1743
     28 S          62.2869   90.3826   10.3988 S.3     1  UNL1       -0.0621
     29 C          63.3813   90.9037   11.2824 C.ar    1  UNL1        0.2119
     30 N          63.7034   90.4202   12.6654 N.ar    1  UNL1       -0.1874
     31 C          64.8669   91.2175   13.1759 C.ar    1  UNL1        0.2194
     32 N          65.5189   91.0653   14.5181 N.pl3   1  UNL1       -0.3273
     33 N          65.2639   92.1937   12.1084 N.ar    1  UNL1       -0.1620
     34 C          66.3826   93.1891   12.1958 C.2     1  UNL1        0.2826
     35 O          67.2209   93.2681   13.4373 O.2     1  UNL1       -0.2651
     36 N          64.3457   91.9998   10.9382 N.ar    1  UNL1       -0.1340
     37 H          65.1847   90.3923   15.1542 H       1  UNL1        0.1452
     38 H          66.2811   91.6383   14.7629 H       1  UNL1        0.1452
     39 C          66.6630   94.1054   11.0419 C.ar    1  UNL1        0.0580
     40 C          67.4839   93.6227    9.8831 C.ar    1  UNL1        0.0045
     41 C          67.7643   94.5391    8.7291 C.ar    1  UNL1       -0.0041
     42 C          67.2237   95.9383    8.7340 C.ar    1  UNL1       -0.0218
     43 C          67.5040   96.8548    7.5801 C.3     1  UNL1        0.0310
     44 C          66.4027   96.4211    9.8929 C.ar    1  UNL1       -0.0041
     45 C          66.1224   95.5047   11.0469 C.ar    1  UNL1        0.0045
@<TRIPOS>BOND
     1    22    23    2
     2    23     1    1
     3     1     2    1
     4     1     3    1
     5     3     4    1
     6     4    24    1
     7    24    25    1
     8    25    26    2
     9    25    27    1
    10    27    28    1
    11    28    29    1
    12    29    30   ar
    13    30    31   ar
    14    31    32    1
    15    31    33   ar
    16    33    34   am
    17    34    35    2
    18    34    39    1
    19    39    40   ar
    20    40    41   ar
    21    41    42   ar
    22    42    43    1
    23    42    44   ar
    24    44    45   ar
    25    33    36   ar
    26     4     5    1
    27     5     6    1
    28     5     7    1
    29     7     8    1
    30     7     9    1
    31     9    10    1
    32    11    10    1
    33    11    12    1
    34    12    13    1
    35    13    14    1
    36    14    15    2
    37    16    14    1
    38    11    17    1
    39    17    18    1
    40    17    19    1
    41    19    20    1
    42    19     1    1
    43    36    29   ar
    44    16     5    1
    45    45    39   ar
    46    16    11    1
    47    32    37    1
    48    32    38    1
    49    20    21    1
@<TRIPOS>MOLECULE
*****
 45 49 0 0 0
SMALL
GASTEIGER

@<TRIPOS>ATOM
      1 C          63.5515   90.4500   14.5312 C.3     1  UNL1        0.0468
      2 C          63.1495   89.8168   16.4916 C.3     1  UNL1        0.0069
      3 C          63.2488   90.2574   13.6363 C.3     1  UNL1        0.0500
      4 C          63.4711   90.5832   12.7563 C.3     1  UNL1        0.1694
      5 C          64.0566   91.2887   11.7096 C.3     1  UNL1        0.0435
      6 C          63.9890   91.4007   10.2153 C.3     1  UNL1        0.0040
      7 C          64.2447   91.3792   12.5086 C.3     1  UNL1        0.0038
      8 C          62.3943   89.5528   12.4530 C.3     1  UNL1        0.0001
      9 C          64.4333   91.4663   13.3406 C.3     1  UNL1        0.0001
     10 C          64.9581   91.9644   13.5222 C.3     1  UNL1        0.0005
     11 C          65.5396   92.5189   13.7020 C.3     1  UNL1        0.0093
     12 C          66.5982   93.5781   13.6153 C.3     1  UNL1        0.0082
     13 C          66.7815   93.9329   12.1695 C.3     1  UNL1        0.0645
     14 C          65.8361   93.0931   11.3626 C.2     1  UNL1        0.1504
     15 O          65.6849   93.1222    9.8705 O.2     1  UNL1       -0.2961
     16 C          65.0686   92.2192   12.3097 C.3     1  UNL1        0.0610
     17 C          64.8191   91.7015   14.5676 C.3     1  UNL1        0.0276
     18 C          65.9963   92.6781   16.1491 C.3     1  UNL1        0.0025
     19 C          64.2020   91.0483   14.9170 C.3     1  UNL1        0.1141
     20 O          64.3013   90.8839   17.1086 O.3     1  UNL1       -0.3841
     21 H          63.6652   90.2174   17.4121 H       1  UNL1        0.2103
     22 C          60.8001   89.1317   15.7714 C.2     1  UNL1       -0.0048
     23 C          62.1724   89.0062   15.1789 C.2     1  UNL1       -0.0243
     24 O          62.2940   89.6066   11.1749 O.3     1  UNL1       -0.4516
     25 C          60.8797   89.1858   11.4440 C.2     1  UNL1        0.3284
     26 O          60.0949   89.8491   12.5367 O.2     1  UNL1       -0.2491
     27 C          60.2501   88.1018   10.6204 C.3     1  UNL1        0.1743
     28 S          61.0874   87.3022    9.6667 S.3     1  UNL1       -0.0621
     29 C          61.9378   86.1768   10.1771 C.ar    1  UNL1        0.2119
     30 N          62.5682   85.1002    9.3443 N.ar    1  UNL1       -0.1874
     31 C          63.3269   84.1885   10.2624 C.ar    1  UNL1        0.2194
     32 N          64.1097   82.9765    9.8524 N.pl3   1  UNL1       -0.3273
     33 N          63.1655   84.7016   11.6627 N.ar    1  UNL1       -0.1620
     34 C          63.7585   84.0928   12.8987 C.2     1  UNL1        0.2826
     35 O          64.6010   82.8559   12.7954 O.2     1  UNL1       -0.2651
     36 N          62.3069   85.9305   11.6100 N.ar    1  UNL1       -0.1340
     37 H          64.1567   82.7188    8.9034 H       1  UNL1        0.1452
     38 H          64.5764   82.4387   10.5322 H       1  UNL1        0.1452
     39 C          63.5091   84.7207   14.2378 C.ar    1  UNL1        0.0580
     40 C          62.3244   84.2986   15.0552 C.ar    1  UNL1        0.0045
     41 C          62.0749   84.9266   16.3944 C.ar    1  UNL1       -0.0041
     42 C          63.0103   85.9767   16.9162 C.ar    1  UNL1       -0.0218
     43 C          62.7609   86.6048   18.2554 C.3     1  UNL1        0.0310
     44 C          64.1951   86.3989   16.0988 C.ar    1  UNL1       -0.0041
     45 C          64.4446   85.7709   14.7596 C.ar    1  UNL1        0.0045
@<TRIPOS>BOND
     1    22    23    2
     2    23     1    1
     3     1     2    1
     4     1     3    1
     5     3     4    1
     6     4    24    1
     7    24    25    1
     8    25    26    2
     9    25    27    1
    10    27    28    1
    11    28    29    1
    12    29    30   ar
    13    30    31   ar
    14    31    32    1
    15    31    33   ar
    16    33    34   am
    17    34    35    2
    18    34    39    1
    19    39    40   ar
    20    40    41   ar
    21    41    42   ar
    22    42    43    1
    23    42    44   ar
    24    44    45   ar
    25    33    36   ar
    26     4     5    1
    27     5     6    1
    28     5     7    1
    29     7     8    1
    30     7     9    1
    31     9    10    1
    32    11    10    1
    33    11    12    1
    34    12    13    1
    35    13    14    1
    36    14    15    2
    37    16    14    1
    38    11    17    1
    39    17    18    1
    40    17    19    1
    41    19    20    1
    42    19     1    1
    43    36    29   ar
    44    16     5    1
    45    45    39   ar
    46    16    11    1
    47    32    37    1
    48    32    38    1
    49    20    21    1
@<TRIPOS>MOLECULE
*****
 45 49 0 0 0
SMALL
GASTEIGER

@<TRIPOS>ATOM
      1 C          63.0569   83.9604   11.0799 C.3     1  UNL1        0.0468
      2 C          62.8991   82.3799    9.7077 C.3     1  UNL1        0.0069
      3 C          62.9848   84.9219   11.0818 C.3     1  UNL1        0.0500
      4 C          63.0680   85.6106   11.7516 C.3     1  UNL1        0.1694
      5 C          63.2622   86.2713   12.9607 C.3     1  UNL1        0.0435
      6 C          63.2716   87.6607   13.5261 C.3     1  UNL1        0.0040
      7 C          63.3021   85.4535   12.8533 C.3     1  UNL1        0.0038
      8 C          62.7549   86.4173   10.5008 C.3     1  UNL1        0.0001
      9 C          63.3416   84.6055   12.7324 C.3     1  UNL1        0.0001
     10 C          63.4935   84.1817   13.3272 C.3     1  UNL1        0.0005
     11 C          63.6623   83.7315   13.9956 C.3     1  UNL1        0.0093
     12 C          63.9777   83.2876   15.3933 C.3     1  UNL1        0.0082
     13 C          64.0605   84.5091   16.2599 C.3     1  UNL1        0.0645
     14 C          63.7963   85.7079   15.3979 C.2     1  UNL1        0.1504
     15 O          63.7809   87.1364   15.8551 O.2     1  UNL1       -0.2961
     16 C          63.5502   85.2273   13.9985 C.3     1  UNL1        0.0610
     17 C          63.4318   83.3016   12.6923 C.3     1  UNL1        0.0276
     18 C          63.7494   81.2856   13.5139 C.3     1  UNL1        0.0025
     19 C          63.2420   83.2892   11.7471 C.3     1  UNL1        0.1141
     20 O          63.2282   81.2515   10.9178 O.3     1  UNL1       -0.3841
     21 H          63.0338   81.2901    9.9683 H       1  UNL1        0.2103
     22 C          62.9301   85.1004    7.9928 C.2     1  UNL1       -0.0048
     23 C          62.6355   84.0534    9.0257 C.2     1  UNL1       -0.0243
     24 O          62.7504   87.6266   10.9300 O.3     1  UNL1       -0.4516
     25 C          61.3605   88.1039   10.6301 C.2     1  UNL1        0.3284
     26 O          60.3469   87.1538   10.0644 O.2     1  UNL1       -0.2491
     27 C          60.9839   89.5313   10.8960 C.3     1  UNL1        0.1743
     28 S          61.8967   90.6406   10.4644 S.3     1  UNL1       -0.0621
     29 C          63.0440   91.0511   11.3393 C.ar    1  UNL1        0.2119
     30 N          63.3636   90.4923   12.6941 N.ar    1  UNL1       -0.1874
     31 C          64.5903   91.1883   13.2050 C.ar    1  UNL1        0.2194
     32 N          65.2606   90.9391   14.5234 N.pl3   1  UNL1       -0.3273
     33 N          65.0288   92.1772   12.1659 N.ar    1  UNL1       -0.1620
     34 C          66.2147   93.0906   12.2628 C.2     1  UNL1        0.2826
     35 O          67.0844   93.0633   13.4847 O.2     1  UNL1       -0.2651
     36 N          64.0731   92.0925   11.0127 N.ar    1  UNL1       -0.1340
     37 H          64.8957   90.2654   15.1417 H       1  UNL1        0.1452
     38 H          66.0656   91.4492   14.7705 H       1  UNL1        0.1452
     39 C          66.5308   94.0311   11.1380 C.ar    1  UNL1        0.0580
     40 C          67.2182   93.5225    9.9057 C.ar    1  UNL1        0.0045
     41 C          67.5343   94.4631    8.7808 C.ar    1  UNL1       -0.0041
     42 C          67.1630   95.9124    8.8883 C.ar    1  UNL1       -0.0218
     43 C          67.4791   96.8531    7.7635 C.3     1  UNL1        0.0310
     44 C          66.4756   96.4212   10.1207 C.ar    1  UNL1       -0.0041
     45 C          66.1594   95.4805   11.2456 C.ar    1  UNL1        0.0045
@<TRIPOS>BOND
     1    22    23    2
     2    23     1    1
     3     1     2    1
     4     1     3    1
     5     3     4    1
     6     4    24    1
     7    24    25    1
     8    25    26    2
     9    25    27    1
    10    27    28    1
    11    28    29    1
    12    29    30   ar
    13    30    31   ar
    14    31    32    1
    15    31    33   ar
    16    33    34   am
    17    34    35    2
    18    34    39    1
    19    39    40   ar
    20    40    41   ar
    21    41    42   ar
    22    42    43    1
    23    42    44   ar
    24    44    45   ar
    25    33    36   ar
    26     4     5    1
    27     5     6    1
    28     5     7    1
    29     7     8    1
    30     7     9    1
    31     9    10    1
    32    11    10    1
    33    11    12    1
    34    12    13    1
    35    13    14    1
    36    14    15    2
    37    16    14    1
    38    11    17    1
    39    17    18    1
    40    17    19    1
    41    19    20    1
    42    19     1    1
    43    36    29   ar
    44    16     5    1
    45    45    39   ar
    46    16    11    1
    47    32    37    1
    48    32    38    1
    49    20    21    1
@<TRIPOS>MOLECULE
*****
 45 49 0 0 0
SMALL
GASTEIGER

@<TRIPOS>ATOM
      1 C          62.3972   92.9648    0.7868 C.3     1  UNL1        0.0468
      2 C          64.3961   92.8853    1.4224 C.3     1  UNL1        0.0069
      3 C          61.5183   92.8178    1.1553 C.3     1  UNL1        0.0500
      4 C          60.6182   92.8693    0.8132 C.3     1  UNL1        0.1694
      5 C          59.5253   93.0516   -0.0285 C.3     1  UNL1        0.0435
      6 C          58.0276   92.9711   -0.0062 C.3     1  UNL1        0.0040
      7 C          60.3155   93.1518   -0.2460 C.3     1  UNL1        0.0038
      8 C          60.3879   92.4522    2.2576 C.3     1  UNL1        0.0001
      9 C          61.1390   93.2535   -0.4628 C.3     1  UNL1        0.0001
     10 C          61.2852   93.4580   -1.1651 C.3     1  UNL1        0.0005
     11 C          61.4256   93.6838   -1.9444 C.3     1  UNL1        0.0093
     12 C          61.2651   94.0798   -3.3823 C.3     1  UNL1        0.0082
     13 C          59.7988   94.0957   -3.6977 C.3     1  UNL1        0.0645
     14 C          59.0530   93.7097   -2.4547 C.2     1  UNL1        0.1504
     15 O          57.5633   93.5978   -2.3193 O.2     1  UNL1       -0.2961
     16 C          60.0585   93.4551   -1.3711 C.3     1  UNL1        0.0610
     17 C          62.3459   93.4441   -0.9284 C.3     1  UNL1        0.0276
     18 C          63.8543   93.9459   -2.4493 C.3     1  UNL1        0.0025
     19 C          62.7400   93.2242   -0.0763 C.3     1  UNL1        0.1141
     20 O          64.9366   93.3422   -0.1090 O.3     1  UNL1       -0.3841
     21 H          65.2857   93.1136    0.7666 H       1  UNL1        0.2103
     22 C          63.3644   91.1455    3.3560 C.2     1  UNL1       -0.0048
     23 C          63.1439   92.4687    2.6848 C.2     1  UNL1       -0.0243
     24 O          59.1098   92.3674    2.3341 O.3     1  UNL1       -0.4516
     25 C          59.4564   92.4524    3.7909 C.2     1  UNL1        0.3284
     26 O          59.5406   93.7897    4.4650 O.2     1  UNL1       -0.2491
     27 C          59.7188   91.2001    4.5737 C.3     1  UNL1        0.1743
     28 S          58.9696   90.9407    5.8471 S.3     1  UNL1       -0.0621
     29 C          59.3063   89.7428    6.6847 C.ar    1  UNL1        0.2119
     30 N          58.7799   88.3522    6.4865 N.ar    1  UNL1       -0.1874
     31 C          59.3767   87.4751    7.5469 C.ar    1  UNL1        0.2194
     32 N          59.1229   86.0073    7.7228 N.pl3   1  UNL1       -0.3273
     33 N          60.2721   88.3235    8.4004 N.ar    1  UNL1       -0.1620
     34 C          61.0708   87.8531    9.5798 C.2     1  UNL1        0.2826
     35 O          61.0141   86.4136    9.9977 O.2     1  UNL1       -0.2651
     36 N          60.2286   89.7251    7.8676 N.ar    1  UNL1       -0.1340
     37 H          58.5153   85.5357    7.1082 H       1  UNL1        0.1452
     38 H          59.5638   85.5155    8.4529 H       1  UNL1        0.1452
     39 C          61.9259   88.8221   10.3410 C.ar    1  UNL1        0.0580
     40 C          62.4420   88.4587   11.7017 C.ar    1  UNL1        0.0045
     41 C          63.2972   89.4278   12.4629 C.ar    1  UNL1       -0.0041
     42 C          63.6364   90.7603   11.8634 C.ar    1  UNL1       -0.0218
     43 C          64.4916   91.7294   12.6246 C.3     1  UNL1        0.0310
     44 C          63.1204   91.1237   10.5027 C.ar    1  UNL1       -0.0041
     45 C          62.2651   90.1547    9.7414 C.ar    1  UNL1        0.0045
@<TRIPOS>BOND
     1    22    23    2
     2    23     1    1
     3     1     2    1
     4     1     3    1
     5     3     4    1
     6     4    24    1
     7    24    25    1
     8    25    26    2
     9    25    27    1
    10    27    28    1
    11    28    29    1
    12    29    30   ar
    13    30    31   ar
    14    31    32    1
    15    31    33   ar
    16    33    34   am
    17    34    35    2
    18    34    39    1
    19    39    40   ar
    20    40    41   ar
    21    41    42   ar
    22    42    43    1
    23    42    44   ar
    24    44    45   ar
    25    33    36   ar
    26     4     5    1
    27     5     6    1
    28     5     7    1
    29     7     8    1
    30     7     9    1
    31     9    10    1
    32    11    10    1
    33    11    12    1
    34    12    13    1
    35    13    14    1
    36    14    15    2
    37    16    14    1
    38    11    17    1
    39    17    18    1
    40    17    19    1
    41    19    20    1
    42    19     1    1
    43    36    29   ar
    44    16     5    1
    45    45    39   ar
    46    16    11    1
    47    32    37    1
    48    32    38    1
    49    20    21    1
@<TRIPOS>MOLECULE
*****
 45 49 0 0 0
SMALL
GASTEIGER

@<TRIPOS>ATOM
      1 C          62.0494   85.4234    9.3849 C.3     1  UNL1        0.0468
      2 C          62.0278   85.3609    7.2870 C.3     1  UNL1        0.0069
      3 C          61.6384   85.9311   10.0942 C.3     1  UNL1        0.0500
      4 C          61.6844   85.9179   11.0573 C.3     1  UNL1        0.1694
      5 C          62.0170   85.5858   12.3670 C.3     1  UNL1        0.0435
      6 C          61.7097   86.0020   13.7749 C.3     1  UNL1        0.0040
      7 C          62.3128   85.2136   11.6917 C.3     1  UNL1        0.0038
      8 C          60.7017   87.0498   10.7998 C.3     1  UNL1        0.0001
      9 C          62.6146   84.8331   10.9849 C.3     1  UNL1        0.0001
     10 C          63.0991   84.2736   11.0778 C.3     1  UNL1        0.0005
     11 C          63.6324   83.6586   11.2014 C.3     1  UNL1        0.0093
     12 C          64.5344   82.6358   11.8261 C.3     1  UNL1        0.0082
     13 C          64.4524   82.7934   13.3155 C.3     1  UNL1        0.0645
     14 C          63.4997   83.9136   13.6114 C.2     1  UNL1        0.1504
     15 O          63.1204   84.4116   14.9745 O.2     1  UNL1       -0.2961
     16 C          62.9929   84.4483   12.3048 C.3     1  UNL1        0.0610
     17 C          63.1529   84.1659    9.9976 C.3     1  UNL1        0.0276
     18 C          64.4352   82.6361    9.0725 C.3     1  UNL1        0.0025
     19 C          62.6768   84.6922    9.3449 C.3     1  UNL1        0.1141
     20 O          63.1276   84.0817    7.2800 O.3     1  UNL1       -0.3841
     21 H          62.6275   84.6375    6.6620 H       1  UNL1        0.2103
     22 C          59.5041   86.6743    7.7109 C.2     1  UNL1       -0.0048
     23 C          60.9634   86.6307    8.0549 C.2     1  UNL1       -0.0243
     24 O          60.4021   87.4476   11.9824 O.3     1  UNL1       -0.4516
     25 C          60.2221   88.7789   11.3152 C.2     1  UNL1        0.3284
     26 O          59.2636   89.7809   11.8873 O.2     1  UNL1       -0.2491
     27 C          61.0006   89.1083   10.0762 C.3     1  UNL1        0.1743
     28 S          61.6309   90.4609    9.9238 S.3     1  UNL1       -0.0621
     29 C          62.7593   90.8683   10.8241 C.ar    1  UNL1        0.2119
     30 N          63.7880   91.9192   10.5282 N.ar    1  UNL1       -0.1874
     31 C          64.7217   91.9968   11.6996 C.ar    1  UNL1        0.2194
     32 N          65.9000   92.9158   11.8285 N.pl3   1  UNL1       -0.3273
     33 N          64.2700   90.9939   12.7195 N.ar    1  UNL1       -0.1620
     34 C          64.9175   90.7340   14.0474 C.2     1  UNL1        0.2826
     35 O          66.1321   91.5141   14.4550 O.2     1  UNL1       -0.2651
     36 N          63.0572   90.2964   12.1784 N.ar    1  UNL1       -0.1340
     37 H          66.1174   93.5425   11.1010 H       1  UNL1        0.1452
     38 H          66.4561   92.8924   12.6406 H       1  UNL1        0.1452
     39 C          64.3503   89.6940   14.9676 C.ar    1  UNL1        0.0580
     40 C          63.5196   90.1079   16.1459 C.ar    1  UNL1        0.0045
     41 C          62.9524   89.0678   17.0660 C.ar    1  UNL1       -0.0041
     42 C          63.2160   87.6139   16.8079 C.ar    1  UNL1       -0.0218
     43 C          62.6489   86.5738   17.7280 C.3     1  UNL1        0.0310
     44 C          64.0469   87.2000   15.6295 C.ar    1  UNL1       -0.0041
     45 C          64.6140   88.2400   14.7093 C.ar    1  UNL1        0.0045
@<TRIPOS>BOND
     1    22    23    2
     2    23     1    1
     3     1     2    1
     4     1     3    1
     5     3     4    1
     6     4    24    1
     7    24    25    1
     8    25    26    2
     9    25    27    1
    10    27    28    1
    11    28    29    1
    12    29    30   ar
    13    30    31   ar
    14    31    32    1
    15    31    33   ar
    16    33    34   am
    17    34    35    2
    18    34    39    1
    19    39    40   ar
    20    40    41   ar
    21    41    42   ar
    22    42    43    1
    23    42    44   ar
    24    44    45   ar
    25    33    36   ar
    26     4     5    1
    27     5     6    1
    28     5     7    1
    29     7     8    1
    30     7     9    1
    31     9    10    1
    32    11    10    1
    33    11    12    1
    34    12    13    1
    35    13    14    1
    36    14    15    2
    37    16    14    1
    38    11    17    1
    39    17    18    1
    40    17    19    1
    41    19    20    1
    42    19     1    1
    43    36    29   ar
    44    16     5    1
    45    45    39   ar
    46    16    11    1
    47    32    37    1
    48    32    38    1
    49    20    21    1
@<TRIPOS>MOLECULE
*****
 45 49 0 0 0
SMALL
GASTEIGER

@<TRIPOS>ATOM
      1 C          62.4012   85.2885    9.8855 C.3     1  UNL1        0.0468
      2 C          62.3936   85.2370    7.7871 C.3     1  UNL1        0.0069
      3 C          62.0637   85.8501   10.5929 C.3     1  UNL1        0.0500
      4 C          62.0965   85.8269   11.5564 C.3     1  UNL1        0.1694
      5 C          62.3606   85.4439   12.8678 C.3     1  UNL1        0.0435
      6 C          62.1041   85.8971   14.2745 C.3     1  UNL1        0.0040
      7 C          62.6042   85.0336   12.1939 C.3     1  UNL1        0.0038
      8 C          61.2992   87.0952   11.2943 C.3     1  UNL1        0.0001
      9 C          62.8528   84.6142   11.4884 C.3     1  UNL1        0.0001
     10 C          63.2461   83.9875   11.5835 C.3     1  UNL1        0.0005
     11 C          63.6790   83.2985   11.7096 C.3     1  UNL1        0.0093
     12 C          64.4091   82.1490   12.3386 C.3     1  UNL1        0.0082
     13 C          64.3353   82.3123   13.8279 C.3     1  UNL1        0.0645
     14 C          63.5596   83.5627   14.1193 C.2     1  UNL1        0.1504
     15 O          63.2449   84.1078   15.4809 O.2     1  UNL1       -0.2961
     16 C          63.1540   84.1722   12.8102 C.3     1  UNL1        0.0610
     17 C          63.2950   83.8766   10.5034 C.3     1  UNL1        0.0276
     18 C          64.3415   82.1736    9.5841 C.3     1  UNL1        0.0025
     19 C          62.9112   84.4710    9.8484 C.3     1  UNL1        0.1141
     20 O          63.2874   83.8062    7.7853 O.3     1  UNL1       -0.3841
     21 H          62.8839   84.4333    7.1649 H       1  UNL1        0.2103
     22 C          60.0931   86.9123    8.1879 C.2     1  UNL1       -0.0048
     23 C          61.5249   86.6506    8.5503 C.2     1  UNL1       -0.0243
     24 O          61.0500   87.5298   12.4757 O.3     1  UNL1       -0.4516
     25 C          60.5439   88.6510   11.6175 C.2     1  UNL1        0.3284
     26 O          59.1199   89.1059   11.7409 O.2     1  UNL1       -0.2491
     27 C          61.4617   89.3174   10.6359 C.3     1  UNL1        0.1743
     28 S          61.8624   90.7489   10.8363 S.3     1  UNL1       -0.0621
     29 C          63.1104   91.0785   11.6005 C.ar    1  UNL1        0.2119
     30 N          63.5450   90.4515   12.8920 N.ar    1  UNL1       -0.1874
     31 C          64.8461   91.0785   13.2970 C.ar    1  UNL1        0.2194
     32 N          65.6385   90.7488   14.5271 N.pl3   1  UNL1       -0.3273
     33 N          65.2157   92.0930   12.2557 N.ar    1  UNL1       -0.1620
     34 C          66.4426   92.9559   12.2619 C.2     1  UNL1        0.2826
     35 O          67.4324   92.8443   13.3835 O.2     1  UNL1       -0.2651
     36 N          64.1430   92.0930   11.2072 N.ar    1  UNL1       -0.1340
     37 H          65.3116   90.0640   15.1544 H       1  UNL1        0.1452
     38 H          66.4854   91.2173   14.7073 H       1  UNL1        0.1452
     39 C          66.6797   93.9304   11.1465 C.ar    1  UNL1        0.0580
     40 C          66.1707   95.3369   11.2585 C.ar    1  UNL1        0.0045
     41 C          66.4078   96.3114   10.1430 C.ar    1  UNL1       -0.0041
     42 C          67.1539   95.8793    8.9155 C.ar    1  UNL1       -0.0218
     43 C          67.3911   96.8537    7.8000 C.3     1  UNL1        0.0310
     44 C          67.6629   94.4727    8.8035 C.ar    1  UNL1       -0.0041
     45 C          67.4258   93.4982    9.9190 C.ar    1  UNL1        0.0045
@<TRIPOS>BOND
     1    22    23    2
     2    23     1    1
     3     1     2    1
     4     1     3    1
     5     3     4    1
     6     4    24    1
     7    24    25    1
     8    25    26    2
     9    25    27    1
    10    27    28    1
    11    28    29    1
    12    29    30   ar
    13    30    31   ar
    14    31    32    1
    15    31    33   ar
    16    33    34   am
    17    34    35    2
    18    34    39    1
    19    39    40   ar
    20    40    41   ar
    21    41    42   ar
    22    42    43    1
    23    42    44   ar
    24    44    45   ar
    25    33    36   ar
    26     4     5    1
    27     5     6    1
    28     5     7    1
    29     7     8    1
    30     7     9    1
    31     9    10    1
    32    11    10    1
    33    11    12    1
    34    12    13    1
    35    13    14    1
    36    14    15    2
    37    16    14    1
    38    11    17    1
    39    17    18    1
    40    17    19    1
    41    19    20    1
    42    19     1    1
    43    36    29   ar
    44    16     5    1
    45    45    39   ar
    46    16    11    1
    47    32    37    1
    48    32    38    1
    49    20    21    1
