@<TRIPOS>MOLECULE
*****
 29 31 0 0 0
SMALL
GASTEIGER

@<TRIPOS>ATOM
      1 N          63.2440   89.8463   12.2854 N.pl3   1  UNL1       -0.2872
      2 N          65.7135   93.4152   11.0962 N.3     1  UNL1       -0.2678
      3 C          64.7373   92.8213   10.1245 C.3     1  UNL1        0.0741
      4 C          63.9141   91.6317   10.5209 C.3     1  UNL1        0.0375
      5 C          64.0672   91.0360   11.8890 C.3     1  UNL1        0.0800
      6 C          65.0434   91.6299   12.8606 C.3     1  UNL1        0.0375
      7 C          65.8666   92.8195   12.4642 C.3     1  UNL1        0.0741
      8 C          66.5367   94.6048   10.6997 C.3     1  UNL1        0.1156
      9 C          67.5417   94.4861    9.5926 C.2     1  UNL1        0.1654
     10 C          68.3627   93.2382    9.4555 C.3     1  UNL1        0.0737
     11 O          67.7258   95.6154    8.6225 O.2     1  UNL1       -0.2946
     12 C          65.2684   96.8545   10.9825 C.3     1  UNL1        0.0019
     13 C          66.3549   95.9132   11.4105 C.3     1  UNL1        0.0235
     14 C          62.3298   89.2005   11.2869 C.ar    1  UNL1        0.0515
     15 C          62.6127   87.8100   10.8005 C.ar    1  UNL1        0.0148
     16 C          61.6986   87.1642    9.8019 C.ar    1  UNL1        0.0051
     17 C          60.5014   87.9088    9.2897 C.ar    1  UNL1        0.0715
     18 C          60.2184   89.2992    9.7760 C.ar    1  UNL1        0.0051
     19 C          61.1326   89.9451   10.7746 C.ar    1  UNL1        0.0148
     20 C          59.5872   87.2629    8.2911 C.3     1  UNL1        0.4186
     21 F          58.6730   86.6170    7.2926 F       1  UNL1       -0.1659
     22 F          60.0760   85.9106    8.7182 F       1  UNL1       -0.1659
     23 F          59.0984   88.6151    7.8640 F       1  UNL1       -0.1659
     24 C          63.3349   89.3025   13.6804 C.ar    1  UNL1        0.0710
     25 C          64.0188   87.9912   13.9310 C.ar    1  UNL1        0.0180
     26 C          64.1097   87.4474   15.3261 C.ar    1  UNL1        0.0220
     27 C          63.5169   88.2150   16.4704 C.ar    1  UNL1        0.0990
     28 N          62.8331   89.5263   16.2197 N.ar    1  UNL1       -0.2410
     29 C          62.7421   90.0701   14.8247 C.ar    1  UNL1        0.1136
@<TRIPOS>BOND
     1    12    13    1
     2    13     8    1
     3     8     9    1
     4     9    10    1
     5     9    11    2
     6     8     2    1
     7     2     3    1
     8     3     4    1
     9     4     5    1
    10     5     1    1
    11     1    14    1
    12    14    15   ar
    13    15    16   ar
    14    16    17   ar
    15    17    20    1
    16    20    21    1
    17    20    22    1
    18    20    23    1
    19    17    18   ar
    20    18    19   ar
    21     1    24    1
    22    24    25   ar
    23    25    26   ar
    24    26    27   ar
    25    27    28   ar
    26    28    29   ar
    27     5     6    1
    28     6     7    1
    29     7     2    1
    30    19    14   ar
    31    29    24   ar
@<TRIPOS>MOLECULE
*****
 29 31 0 0 0
SMALL
GASTEIGER

@<TRIPOS>ATOM
      1 N          65.7349   92.3875   12.5343 N.pl3   1  UNL1       -0.2872
      2 N          62.1111   89.7828   11.9563 N.3     1  UNL1       -0.2678
      3 C          62.8603   89.7480   13.2553 C.3     1  UNL1        0.0741
      4 C          64.0683   90.6162   13.4480 C.3     1  UNL1        0.0375
      5 C          64.5270   91.5193   12.3416 C.3     1  UNL1        0.0800
      6 C          63.7778   91.5541   11.0426 C.3     1  UNL1        0.0375
      7 C          62.5699   90.6858   10.8500 C.3     1  UNL1        0.0741
      8 C          60.9032   88.9146   11.7636 C.3     1  UNL1        0.1156
      9 C          59.5448   89.4243   12.1441 C.2     1  UNL1        0.1654
     10 C          59.0279   90.6995   11.5468 C.3     1  UNL1        0.0737
     11 O          58.7032   88.6589   13.1218 O.2     1  UNL1       -0.2946
     12 C          61.6966   87.3486    9.8484 C.3     1  UNL1        0.0019
     13 C          61.0537   87.5366   11.1905 C.3     1  UNL1        0.0235
     14 C          66.2023   93.2795   11.4227 C.ar    1  UNL1        0.0515
     15 C          67.0574   92.7226   10.3232 C.ar    1  UNL1        0.0148
     16 C          67.5249   93.6147    9.2116 C.ar    1  UNL1        0.0051
     17 C          67.1373   95.0637    9.1994 C.ar    1  UNL1        0.0715
     18 C          66.2823   95.6206   10.2988 C.ar    1  UNL1        0.0051
     19 C          65.8148   94.7286   11.4105 C.ar    1  UNL1        0.0148
     20 C          67.6048   95.9558    8.0878 C.3     1  UNL1        0.4186
     21 F          68.0723   96.8478    6.9762 F       1  UNL1       -0.1659
     22 F          66.9410   95.0568    7.0872 F       1  UNL1       -0.1659
     23 F          68.2686   96.8547    9.0883 F       1  UNL1       -0.1659
     24 C          66.4754   92.3636   13.8385 C.ar    1  UNL1        0.0710
     25 C          67.9173   91.9520   13.8749 C.ar    1  UNL1        0.0180
     26 C          68.6578   91.9281   15.1792 C.ar    1  UNL1        0.0220
     27 C          67.9563   92.3160   16.4471 C.ar    1  UNL1        0.0990
     28 N          66.5144   92.7277   16.4107 N.ar    1  UNL1       -0.2410
     29 C          65.7739   92.7515   15.1064 C.ar    1  UNL1        0.1136
@<TRIPOS>BOND
     1    12    13    1
     2    13     8    1
     3     8     9    1
     4     9    10    1
     5     9    11    2
     6     8     2    1
     7     2     3    1
     8     3     4    1
     9     4     5    1
    10     5     1    1
    11     1    14    1
    12    14    15   ar
    13    15    16   ar
    14    16    17   ar
    15    17    20    1
    16    20    21    1
    17    20    22    1
    18    20    23    1
    19    17    18   ar
    20    18    19   ar
    21     1    24    1
    22    24    25   ar
    23    25    26   ar
    24    26    27   ar
    25    27    28   ar
    26    28    29   ar
    27     5     6    1
    28     6     7    1
    29     7     2    1
    30    19    14   ar
    31    29    24   ar
@<TRIPOS>MOLECULE
*****
 29 31 0 0 0
SMALL
GASTEIGER

@<TRIPOS>ATOM
      1 N          65.5752   92.1779   12.4239 N.pl3   1  UNL1       -0.2872
      2 N          62.3286   89.1979   11.5130 N.3     1  UNL1       -0.2678
      3 C          62.5883   90.3356   10.5706 C.3     1  UNL1        0.0741
      4 C          63.6705   91.3289   10.8742 C.3     1  UNL1        0.0375
      5 C          64.4930   91.1845   12.1203 C.3     1  UNL1        0.0800
      6 C          64.2333   90.0468   13.0627 C.3     1  UNL1        0.0375
      7 C          63.1511   89.0535   12.7590 C.3     1  UNL1        0.0741
      8 C          61.2465   88.2045   11.2093 C.3     1  UNL1        0.1156
      9 C          61.6034   86.7911   10.8561 C.2     1  UNL1        0.1654
     10 C          61.8354   86.4118    9.4235 C.3     1  UNL1        0.0737
     11 O          61.7282   85.7569   11.9355 O.2     1  UNL1       -0.2946
     12 C          59.3536   89.6280   12.2775 C.3     1  UNL1        0.0019
     13 C          59.8074   88.6246   11.2589 C.3     1  UNL1        0.0235
     14 C          66.0564   93.1130   11.3545 C.ar    1  UNL1        0.0515
     15 C          65.5696   94.5315   11.3237 C.ar    1  UNL1        0.0148
     16 C          66.0508   95.4666   10.2543 C.ar    1  UNL1        0.0051
     17 C          67.0190   94.9834    9.2155 C.ar    1  UNL1        0.0715
     18 C          67.5059   93.5650    9.2461 C.ar    1  UNL1        0.0051
     19 C          67.0246   92.6297   10.3157 C.ar    1  UNL1        0.0148
     20 C          67.5003   95.9186    8.1460 C.3     1  UNL1        0.4186
     21 F          67.9816   96.8538    7.0765 F       1  UNL1       -0.1659
     22 F          66.9813   94.9833    7.0944 F       1  UNL1       -0.1659
     23 F          68.0193   96.8539    9.1975 F       1  UNL1       -0.1659
     24 C          66.1760   92.2360   13.7970 C.ar    1  UNL1        0.0710
     25 C          67.6651   92.1755   13.9673 C.ar    1  UNL1        0.0180
     26 C          68.2660   92.2337   15.3405 C.ar    1  UNL1        0.0220
     27 C          67.3778   92.3524   16.5434 C.ar    1  UNL1        0.0990
     28 N          65.8887   92.4129   16.3731 N.ar    1  UNL1       -0.2410
     29 C          65.2878   92.3547   15.0000 C.ar    1  UNL1        0.1136
@<TRIPOS>BOND
     1    12    13    1
     2    13     8    1
     3     8     9    1
     4     9    10    1
     5     9    11    2
     6     8     2    1
     7     2     3    1
     8     3     4    1
     9     4     5    1
    10     5     1    1
    11     1    14    1
    12    14    15   ar
    13    15    16   ar
    14    16    17   ar
    15    17    20    1
    16    20    21    1
    17    20    22    1
    18    20    23    1
    19    17    18   ar
    20    18    19   ar
    21     1    24    1
    22    24    25   ar
    23    25    26   ar
    24    26    27   ar
    25    27    28   ar
    26    28    29   ar
    27     5     6    1
    28     6     7    1
    29     7     2    1
    30    19    14   ar
    31    29    24   ar
@<TRIPOS>MOLECULE
*****
 29 31 0 0 0
SMALL
GASTEIGER

@<TRIPOS>ATOM
      1 N          62.1694   86.6674   11.2677 N.pl3   1  UNL1       -0.2872
      2 N          64.1229   90.3360   12.9926 N.3     1  UNL1       -0.2678
      3 C          63.3580   90.4284   11.7056 C.3     1  UNL1        0.0741
      4 C          62.7069   89.2056   11.1306 C.3     1  UNL1        0.0375
      5 C          62.8206   87.8903   11.8426 C.3     1  UNL1        0.0800
      6 C          63.5854   87.7978   13.1296 C.3     1  UNL1        0.0375
      7 C          64.2366   89.0207   13.7046 C.3     1  UNL1        0.0741
      8 C          64.7741   91.5589   13.5675 C.3     1  UNL1        0.1156
      9 C          64.8016   91.7658   15.0529 C.2     1  UNL1        0.1654
     10 C          66.0519   92.2596   15.7184 C.3     1  UNL1        0.0737
     11 O          63.5787   91.4789   15.8729 O.2     1  UNL1       -0.2946
     12 C          66.7646   92.3333   12.0884 C.3     1  UNL1        0.0019
     13 C          65.3978   92.5748   12.6572 C.3     1  UNL1        0.0235
     14 C          62.4403   85.3203   11.8692 C.ar    1  UNL1        0.0515
     15 C          62.8825   84.1840   10.9955 C.ar    1  UNL1        0.0148
     16 C          63.1534   82.8369   11.5970 C.ar    1  UNL1        0.0051
     17 C          62.9822   82.6261   13.0722 C.ar    1  UNL1        0.0715
     18 C          62.5401   83.7623   13.9459 C.ar    1  UNL1        0.0051
     19 C          62.2691   85.1095   13.3444 C.ar    1  UNL1        0.0148
     20 C          63.2532   81.2789   13.6737 C.3     1  UNL1        0.4186
     21 F          63.5241   79.9318   14.2752 F       1  UNL1       -0.1659
     22 F          64.6137   81.2705   13.0422 F       1  UNL1       -0.1659
     23 F          61.8927   81.2873   14.3053 F       1  UNL1       -0.1659
     24 C          61.2473   86.7917   10.0911 C.ar    1  UNL1        0.0710
     25 C          61.5554   86.0634    8.8165 C.ar    1  UNL1        0.0180
     26 C          60.6332   86.1877    7.6400 C.ar    1  UNL1        0.0220
     27 C          59.4029   87.0402    7.7381 C.ar    1  UNL1        0.0990
     28 N          59.0948   87.7685    9.0127 N.ar    1  UNL1       -0.2410
     29 C          60.0169   87.6442   10.1892 C.ar    1  UNL1        0.1136
@<TRIPOS>BOND
     1    12    13    1
     2    13     8    1
     3     8     9    1
     4     9    10    1
     5     9    11    2
     6     8     2    1
     7     2     3    1
     8     3     4    1
     9     4     5    1
    10     5     1    1
    11     1    14    1
    12    14    15   ar
    13    15    16   ar
    14    16    17   ar
    15    17    20    1
    16    20    21    1
    17    20    22    1
    18    20    23    1
    19    17    18   ar
    20    18    19   ar
    21     1    24    1
    22    24    25   ar
    23    25    26   ar
    24    26    27   ar
    25    27    28   ar
    26    28    29   ar
    27     5     6    1
    28     6     7    1
    29     7     2    1
    30    19    14   ar
    31    29    24   ar
@<TRIPOS>MOLECULE
*****
 29 31 0 0 0
SMALL
GASTEIGER

@<TRIPOS>ATOM
      1 N          62.8650   85.0884   12.0565 N.pl3   1  UNL1       -0.2872
      2 N          64.0133   89.0001   13.9616 N.3     1  UNL1       -0.2678
      3 C          63.2187   88.9902   12.6894 C.3     1  UNL1        0.0741
      4 C          62.8360   87.6863   12.0544 C.3     1  UNL1        0.0375
      5 C          63.2478   86.3923   12.6915 C.3     1  UNL1        0.0800
      6 C          64.0423   86.4022   13.9637 C.3     1  UNL1        0.0375
      7 C          64.4251   87.7062   14.5988 C.3     1  UNL1        0.0741
      8 C          64.3961   90.3041   14.5967 C.3     1  UNL1        0.1156
      9 C          63.7839   90.7096   15.9046 C.2     1  UNL1        0.1654
     10 C          63.1320   89.6797   16.7789 C.3     1  UNL1        0.0737
     11 O          63.8235   92.1450   16.3382 O.2     1  UNL1       -0.2946
     12 C          65.0055   91.9526   12.6833 C.3     1  UNL1        0.0019
     13 C          65.3910   91.2025   13.9238 C.3     1  UNL1        0.0235
     14 C          62.6475   85.0112   10.5744 C.ar    1  UNL1        0.0515
     15 C          63.6109   84.2489    9.7136 C.ar    1  UNL1        0.0148
     16 C          63.3934   84.1718    8.2315 C.ar    1  UNL1        0.0051
     17 C          62.2126   84.8570    7.6101 C.ar    1  UNL1        0.0715
     18 C          61.2493   85.6193    8.4707 C.ar    1  UNL1        0.0051
     19 C          61.4667   85.6964    9.9529 C.ar    1  UNL1        0.0148
     20 C          61.9952   84.7798    6.1279 C.3     1  UNL1        0.4186
     21 F          61.7778   84.7027    4.6457 F       1  UNL1       -0.1659
     22 F          60.5136   84.8782    6.3401 F       1  UNL1       -0.1659
     23 F          63.4768   84.6814    5.9157 F       1  UNL1       -0.1659
     24 C          62.6997   83.8616   12.9036 C.ar    1  UNL1        0.0710
     25 C          62.5891   82.5128   12.2567 C.ar    1  UNL1        0.0180
     26 C          62.4238   81.2859   13.1038 C.ar    1  UNL1        0.0220
     27 C          62.3691   81.4079   14.5978 C.ar    1  UNL1        0.0990
     28 N          62.4797   82.7567   15.2447 N.ar    1  UNL1       -0.2410
     29 C          62.6450   83.9835   14.3977 C.ar    1  UNL1        0.1136
@<TRIPOS>BOND
     1    12    13    1
     2    13     8    1
     3     8     9    1
     4     9    10    1
     5     9    11    2
     6     8     2    1
     7     2     3    1
     8     3     4    1
     9     4     5    1
    10     5     1    1
    11     1    14    1
    12    14    15   ar
    13    15    16   ar
    14    16    17   ar
    15    17    20    1
    16    20    21    1
    17    20    22    1
    18    20    23    1
    19    17    18   ar
    20    18    19   ar
    21     1    24    1
    22    24    25   ar
    23    25    26   ar
    24    26    27   ar
    25    27    28   ar
    26    28    29   ar
    27     5     6    1
    28     6     7    1
    29     7     2    1
    30    19    14   ar
    31    29    24   ar
@<TRIPOS>MOLECULE
*****
 29 31 0 0 0
SMALL
GASTEIGER

@<TRIPOS>ATOM
      1 N          62.9328   88.9186   12.3248 N.pl3   1  UNL1       -0.2872
      2 N          63.4428   84.4868   12.9159 N.3     1  UNL1       -0.2678
      3 C          62.6312   85.0013   11.7642 C.3     1  UNL1        0.0741
      4 C          62.4612   86.4786   11.5672 C.3     1  UNL1        0.0375
      5 C          63.1028   87.4413   12.5219 C.3     1  UNL1        0.0800
      6 C          63.9144   86.9268   13.6736 C.3     1  UNL1        0.0375
      7 C          64.0844   85.4495   13.8706 C.3     1  UNL1        0.0741
      8 C          63.6128   83.0096   13.1130 C.3     1  UNL1        0.1156
      9 C          62.8961   82.3149   14.2327 C.2     1  UNL1        0.1654
     10 C          62.0425   81.1151   13.9467 C.3     1  UNL1        0.0737
     11 O          63.0330   82.8200   15.6385 O.2     1  UNL1       -0.2946
     12 C          64.2320   82.2265   10.7144 C.3     1  UNL1        0.0019
     13 C          64.4995   82.2270   12.1903 C.3     1  UNL1        0.0235
     14 C          63.9029   89.8754   12.9520 C.ar    1  UNL1        0.0515
     15 C          64.4638   89.5900   14.3137 C.ar    1  UNL1        0.0148
     16 C          65.4338   90.5468   14.9409 C.ar    1  UNL1        0.0051
     17 C          65.8430   91.7891   14.2065 C.ar    1  UNL1        0.0715
     18 C          65.2822   92.0746   12.8450 C.ar    1  UNL1        0.0051
     19 C          64.3121   91.1177   12.2177 C.ar    1  UNL1        0.0148
     20 C          66.8131   92.7460   14.8338 C.3     1  UNL1        0.4186
     21 F          67.7832   93.7027   15.4611 F       1  UNL1       -0.1659
     22 F          66.1388   93.8885   14.1340 F       1  UNL1       -0.1659
     23 F          67.4874   91.6034   15.5337 F       1  UNL1       -0.1659
     24 C          61.7928   89.4390   11.5006 C.ar    1  UNL1        0.0710
     25 C          61.8653   89.3878   10.0032 C.ar    1  UNL1        0.0180
     26 C          60.7252   89.9083    9.1789 C.ar    1  UNL1        0.0220
     27 C          59.5127   90.4799    9.8520 C.ar    1  UNL1        0.0990
     28 N          59.4402   90.5310   11.3494 N.ar    1  UNL1       -0.2410
     29 C          60.5802   90.0106   12.1737 C.ar    1  UNL1        0.1136
@<TRIPOS>BOND
     1    12    13    1
     2    13     8    1
     3     8     9    1
     4     9    10    1
     5     9    11    2
     6     8     2    1
     7     2     3    1
     8     3     4    1
     9     4     5    1
    10     5     1    1
    11     1    14    1
    12    14    15   ar
    13    15    16   ar
    14    16    17   ar
    15    17    20    1
    16    20    21    1
    17    20    22    1
    18    20    23    1
    19    17    18   ar
    20    18    19   ar
    21     1    24    1
    22    24    25   ar
    23    25    26   ar
    24    26    27   ar
    25    27    28   ar
    26    28    29   ar
    27     5     6    1
    28     6     7    1
    29     7     2    1
    30    19    14   ar
    31    29    24   ar
@<TRIPOS>MOLECULE
*****
 29 31 0 0 0
SMALL
GASTEIGER

@<TRIPOS>ATOM
      1 N          65.4125   92.1380   12.4458 N.pl3   1  UNL1       -0.2872
      2 N          62.4845   88.9167   11.3057 N.3     1  UNL1       -0.2678
      3 C          62.7036   90.0877   10.3943 C.3     1  UNL1        0.0741
      4 C          63.6796   91.1615   10.7744 C.3     1  UNL1        0.0375
      5 C          64.4365   91.0643   12.0658 C.3     1  UNL1        0.0800
      6 C          64.2173   89.8932   12.9771 C.3     1  UNL1        0.0375
      7 C          63.2413   88.8195   12.5971 C.3     1  UNL1        0.0741
      8 C          61.5084   87.8429   10.9257 C.3     1  UNL1        0.1156
      9 C          60.0539   88.1733   10.7677 C.2     1  UNL1        0.1654
     10 C          59.3525   88.9898   11.8124 C.3     1  UNL1        0.0737
     11 O          59.3006   87.6871    9.5651 O.2     1  UNL1       -0.2946
     12 C          62.4128   85.9994    9.3340 C.3     1  UNL1        0.0019
     13 C          61.9870   86.4388   10.7035 C.3     1  UNL1        0.0235
     14 C          65.9453   93.0717   11.3997 C.ar    1  UNL1        0.0515
     15 C          65.5267   94.5122   11.3967 C.ar    1  UNL1        0.0148
     16 C          66.0595   95.4458   10.3506 C.ar    1  UNL1        0.0051
     17 C          67.0109   94.9391    9.3075 C.ar    1  UNL1        0.0715
     18 C          67.4294   93.4987    9.3104 C.ar    1  UNL1        0.0051
     19 C          66.8967   92.5650   10.3566 C.ar    1  UNL1        0.0148
     20 C          67.5436   95.8729    8.2613 C.3     1  UNL1        0.4186
     21 F          68.0764   96.8066    7.2153 F       1  UNL1       -0.1659
     22 F          67.1655   94.8910    7.1923 F       1  UNL1       -0.1659
     23 F          67.9218   96.8547    9.3304 F       1  UNL1       -0.1659
     24 C          65.8557   92.2781   13.8719 C.ar    1  UNL1        0.0710
     25 C          67.2994   92.5365   14.1867 C.ar    1  UNL1        0.0180
     26 C          67.7426   92.6766   15.6129 C.ar    1  UNL1        0.0220
     27 C          66.7421   92.5583   16.7242 C.ar    1  UNL1        0.0990
     28 N          65.2985   92.2999   16.4094 N.ar    1  UNL1       -0.2410
     29 C          64.8553   92.1598   14.9833 C.ar    1  UNL1        0.1136
@<TRIPOS>BOND
     1    12    13    1
     2    13     8    1
     3     8     9    1
     4     9    10    1
     5     9    11    2
     6     8     2    1
     7     2     3    1
     8     3     4    1
     9     4     5    1
    10     5     1    1
    11     1    14    1
    12    14    15   ar
    13    15    16   ar
    14    16    17   ar
    15    17    20    1
    16    20    21    1
    17    20    22    1
    18    20    23    1
    19    17    18   ar
    20    18    19   ar
    21     1    24    1
    22    24    25   ar
    23    25    26   ar
    24    26    27   ar
    25    27    28   ar
    26    28    29   ar
    27     5     6    1
    28     6     7    1
    29     7     2    1
    30    19    14   ar
    31    29    24   ar
@<TRIPOS>MOLECULE
*****
 29 31 0 0 0
SMALL
GASTEIGER

@<TRIPOS>ATOM
      1 N          63.3293   90.2396   12.1667 N.pl3   1  UNL1       -0.2872
      2 N          60.5090   88.6936    9.0194 N.3     1  UNL1       -0.2678
      3 C          60.1486   89.9124    9.8161 C.3     1  UNL1        0.0741
      4 C          61.0887   90.4277   10.8652 C.3     1  UNL1        0.0375
      5 C          62.3892   89.7242   11.1176 C.3     1  UNL1        0.0800
      6 C          62.7496   88.5055   10.3210 C.3     1  UNL1        0.0375
      7 C          61.8095   87.9902    9.2718 C.3     1  UNL1        0.0741
      8 C          59.5689   88.1783    7.9703 C.3     1  UNL1        0.1156
      9 C          59.3721   86.7011    7.7999 C.2     1  UNL1        0.1654
     10 C          60.5614   85.7949    7.6802 C.3     1  UNL1        0.0737
     11 O          57.9859   86.1300    7.7491 O.2     1  UNL1       -0.2946
     12 C          59.5457   89.8602    5.9902 C.3     1  UNL1        0.0019
     13 C          58.8256   89.1402    7.0916 C.3     1  UNL1        0.0235
     14 C          64.1773   91.4448   11.8872 C.ar    1  UNL1        0.0515
     15 C          65.0069   92.0484   12.9815 C.ar    1  UNL1        0.0148
     16 C          65.8549   93.2536   12.7020 C.ar    1  UNL1        0.0051
     17 C          65.8734   93.8554   11.3281 C.ar    1  UNL1        0.0715
     18 C          65.0438   93.2519   10.2338 C.ar    1  UNL1        0.0051
     19 C          64.1958   92.0466   10.5133 C.ar    1  UNL1        0.0148
     20 C          66.7214   95.0607   11.0486 C.3     1  UNL1        0.4186
     21 F          67.5695   96.2659   10.7690 F       1  UNL1       -0.1659
     22 F          65.9779   95.8281   12.1013 F       1  UNL1       -0.1659
     23 F          67.4650   94.2933    9.9959 F       1  UNL1       -0.1659
     24 C          63.4214   89.5496   13.4954 C.ar    1  UNL1        0.0710
     25 C          64.0970   88.2146   13.6021 C.ar    1  UNL1        0.0180
     26 C          64.1891   87.5247   14.9309 C.ar    1  UNL1        0.0220
     27 C          63.6056   88.1697   16.1529 C.ar    1  UNL1        0.0990
     28 N          62.9300   89.5047   16.0462 N.ar    1  UNL1       -0.2410
     29 C          62.8379   90.1947   14.7176 C.ar    1  UNL1        0.1136
@<TRIPOS>BOND
     1    12    13    1
     2    13     8    1
     3     8     9    1
     4     9    10    1
     5     9    11    2
     6     8     2    1
     7     2     3    1
     8     3     4    1
     9     4     5    1
    10     5     1    1
    11     1    14    1
    12    14    15   ar
    13    15    16   ar
    14    16    17   ar
    15    17    20    1
    16    20    21    1
    17    20    22    1
    18    20    23    1
    19    17    18   ar
    20    18    19   ar
    21     1    24    1
    22    24    25   ar
    23    25    26   ar
    24    26    27   ar
    25    27    28   ar
    26    28    29   ar
    27     5     6    1
    28     6     7    1
    29     7     2    1
    30    19    14   ar
    31    29    24   ar
@<TRIPOS>MOLECULE
*****
 29 31 0 0 0
SMALL
GASTEIGER

@<TRIPOS>ATOM
      1 N          62.8572   85.2514   12.1127 N.pl3   1  UNL1       -0.2872
      2 N          64.1147   89.1873   13.8952 N.3     1  UNL1       -0.2678
      3 C          64.4856   87.9031   14.5758 C.3     1  UNL1        0.0741
      4 C          64.0664   86.5911   13.9816 C.3     1  UNL1        0.0375
      5 C          63.2763   86.5634   12.7069 C.3     1  UNL1        0.0800
      6 C          62.9054   87.8476   12.0263 C.3     1  UNL1        0.0375
      7 C          63.3246   89.1596   12.6205 C.3     1  UNL1        0.0741
      8 C          64.5338   90.4993   14.4894 C.3     1  UNL1        0.1156
      9 C          65.5350   91.3595   13.7770 C.2     1  UNL1        0.1654
     10 C          65.1245   92.1405   12.5639 C.3     1  UNL1        0.0737
     11 O          66.9468   91.4389   14.2777 O.2     1  UNL1       -0.2946
     12 C          63.1954   89.9817   16.6552 C.3     1  UNL1        0.0019
     13 C          63.9518   90.9510   15.7960 C.3     1  UNL1        0.0235
     14 C          62.6124   85.1405   10.6370 C.ar    1  UNL1        0.0515
     15 C          63.5694   84.3732    9.7736 C.ar    1  UNL1        0.0148
     16 C          63.3246   84.2622    8.2979 C.ar    1  UNL1        0.0051
     17 C          62.1228   84.9185    7.6856 C.ar    1  UNL1        0.0715
     18 C          61.1657   85.6857    8.5489 C.ar    1  UNL1        0.0051
     19 C          61.4105   85.7967   10.0247 C.ar    1  UNL1        0.0148
     20 C          61.8780   84.8075    6.2098 C.3     1  UNL1        0.4186
     21 F          61.6332   84.6965    4.7341 F       1  UNL1       -0.1659
     22 F          63.3349   84.5274    5.9891 F       1  UNL1       -0.1659
     23 F          60.4210   85.0876    6.4304 F       1  UNL1       -0.1659
     24 C          62.6828   84.0504   12.9942 C.ar    1  UNL1        0.0710
     25 C          62.5451   82.6866   12.3851 C.ar    1  UNL1        0.0180
     26 C          62.3708   81.4855   13.2667 C.ar    1  UNL1        0.0220
     27 C          62.3341   81.6483   14.7574 C.ar    1  UNL1        0.0990
     28 N          62.4718   83.0122   15.3665 N.ar    1  UNL1       -0.2410
     29 C          62.6461   84.2132   14.4850 C.ar    1  UNL1        0.1136
@<TRIPOS>BOND
     1    12    13    1
     2    13     8    1
     3     8     9    1
     4     9    10    1
     5     9    11    2
     6     8     2    1
     7     2     3    1
     8     3     4    1
     9     4     5    1
    10     5     1    1
    11     1    14    1
    12    14    15   ar
    13    15    16   ar
    14    16    17   ar
    15    17    20    1
    16    20    21    1
    17    20    22    1
    18    20    23    1
    19    17    18   ar
    20    18    19   ar
    21     1    24    1
    22    24    25   ar
    23    25    26   ar
    24    26    27   ar
    25    27    28   ar
    26    28    29   ar
    27     5     6    1
    28     6     7    1
    29     7     2    1
    30    19    14   ar
    31    29    24   ar
