@<TRIPOS>MOLECULE
*****
 21 23 0 0 0
SMALL
GASTEIGER

@<TRIPOS>ATOM
      1 C          63.5147   83.9940   11.9978 C.2     1  UNL1        0.0376
      2 C          64.3868   83.0269   11.2533 C.2     1  UNL1        0.0999
      3 N          64.2246   83.2915    9.7858 N.2     1  UNL1       -0.2478
      4 C          63.2523   84.4221    9.6232 C.2     1  UNL1        0.0634
      5 C          62.7098   85.1123    8.4070 C.3     1  UNL1        0.0719
      6 C          61.7285   86.2367    8.5579 C.2     1  UNL1       -0.0153
      7 C          61.2897   86.6709    9.9250 C.2     1  UNL1        0.0493
      8 C          61.8323   85.9807   11.1412 C.2     1  UNL1        0.0055
      9 C          62.8135   84.8563   10.9904 C.2     1  UNL1        0.0170
     10 N          62.6440   83.1045   14.3633 N.ar    1  UNL1       -0.3090
     11 C          62.7500   83.5832   15.7809 C.ar    1  UNL1        0.1786
     12 N          63.5409   84.8578   15.7817 N.ar    1  UNL1       -0.2223
     13 C          63.9236   85.1668   14.3647 C.ar    1  UNL1        0.1178
     14 C          63.3692   84.0832   13.4880 C.ar    1  UNL1        0.0820
     15 C          62.7175   80.6129   13.6310 C.3     1  UNL1        0.0265
     16 C          61.9368   81.8648   13.9020 C.3     1  UNL1        0.1077
     17 C          60.3084   87.7953   10.0759 C.2     1  UNL1        0.2424
     18 N          59.7452   88.1230   11.4269 N.am    1  UNL1       -0.3253
     19 O          59.8904   88.5920    8.8756 O.2     1  UNL1       -0.2704
     20 H          60.0195   87.6001   12.2146 H       1  UNL1        0.1453
     21 H          59.1011   88.8610   11.5259 H       1  UNL1        0.1453
@<TRIPOS>BOND
     1    15    16    1
     2    16    10    1
     3    10    11   ar
     4    11    12   ar
     5    12    13   ar
     6    13    14   ar
     7    14     1    1
     8     1     2    2
     9     2     3    1
    10     3     4    2
    11     4     5    1
    12     5     6    1
    13     6     7    2
    14     7    17    1
    15    17    18   am
    16    17    19    2
    17     7     8    1
    18     8     9    2
    19    14    10   ar
    20     9     1    1
    21     9     4    1
    22    18    20    1
    23    18    21    1
@<TRIPOS>MOLECULE
*****
 21 23 0 0 0
SMALL
GASTEIGER

@<TRIPOS>ATOM
      1 C          63.4969   83.6810   12.0409 C.2     1  UNL1        0.0376
      2 C          64.4303   82.7498   11.3257 C.2     1  UNL1        0.0999
      3 N          64.3907   83.0859    9.8644 N.2     1  UNL1       -0.2478
      4 C          63.4328   84.2248    9.6764 C.2     1  UNL1        0.0634
      5 C          62.9922   84.9745    8.4542 C.3     1  UNL1        0.0719
      6 C          61.9992   86.0919    8.5772 C.2     1  UNL1       -0.0153
      7 C          61.4467   86.4597    9.9224 C.2     1  UNL1        0.0493
      8 C          61.8873   85.7101   11.1446 C.2     1  UNL1        0.0055
      9 C          62.8804   84.5926   11.0216 C.2     1  UNL1        0.0170
     10 N          63.5960   84.7971   14.4677 N.ar    1  UNL1       -0.3090
     11 C          63.1381   84.3968   15.8389 C.ar    1  UNL1        0.1786
     12 N          62.4864   83.0498   15.7349 N.ar    1  UNL1       -0.2223
     13 C          62.5414   82.6177   14.2996 C.ar    1  UNL1        0.1178
     14 C          63.2272   83.6977   13.5164 C.ar    1  UNL1        0.0820
     15 C          64.2373   87.2490   15.0399 C.3     1  UNL1        0.0265
     16 C          64.2992   86.0731   14.1106 C.3     1  UNL1        0.1077
     17 C          60.4537   87.5772   10.0454 C.2     1  UNL1        0.2424
     18 N          59.9281   87.9685   11.3947 N.am    1  UNL1       -0.3253
     19 O          59.9862   88.3034    8.8189 O.2     1  UNL1       -0.2704
     20 H          60.2350   87.4919   12.1996 H       1  UNL1        0.1453
     21 H          59.2764   88.7019   11.4753 H       1  UNL1        0.1453
@<TRIPOS>BOND
     1    15    16    1
     2    16    10    1
     3    10    11   ar
     4    11    12   ar
     5    12    13   ar
     6    13    14   ar
     7    14     1    1
     8     1     2    2
     9     2     3    1
    10     3     4    2
    11     4     5    1
    12     5     6    1
    13     6     7    2
    14     7    17    1
    15    17    18   am
    16    17    19    2
    17     7     8    1
    18     8     9    2
    19    14    10   ar
    20     9     1    1
    21     9     4    1
    22    18    20    1
    23    18    21    1
@<TRIPOS>MOLECULE
*****
 21 23 0 0 0
SMALL
GASTEIGER

@<TRIPOS>ATOM
      1 C          62.3720   86.0474   10.0016 C.2     1  UNL1        0.0376
      2 C          62.6998   85.7726    8.5639 C.2     1  UNL1        0.0999
      3 N          63.3631   84.4293    8.4884 N.2     1  UNL1       -0.2478
      4 C          63.4452   83.8740    9.8794 C.2     1  UNL1        0.0634
      5 C          63.9986   82.5870   10.4153 C.3     1  UNL1        0.0719
      6 C          63.9394   82.3000   11.8864 C.2     1  UNL1       -0.0153
      7 C          63.3269   83.3001   12.8216 C.2     1  UNL1        0.0493
      8 C          62.7735   84.5871   12.2857 C.2     1  UNL1        0.0055
      9 C          62.8327   84.8741   10.8146 C.2     1  UNL1        0.0170
     10 N          60.3671   87.8125   10.1019 N.ar    1  UNL1       -0.3090
     11 C          60.0881   89.0571   10.8913 C.ar    1  UNL1        0.1786
     12 N          61.2500   89.2933   11.8102 N.ar    1  UNL1       -0.2223
     13 C          62.2469   88.1946   11.5888 C.ar    1  UNL1        0.1178
     14 C          61.7012   87.2794   10.5330 C.ar    1  UNL1        0.0820
     15 C          59.3697   87.8304    7.7030 C.3     1  UNL1        0.0265
     16 C          59.4694   87.2072    9.0638 C.3     1  UNL1        0.1077
     17 C          63.2677   83.0130   14.2927 C.2     1  UNL1        0.2424
     18 N          62.2934   82.0024   14.8211 N.am    1  UNL1       -0.3253
     19 O          64.1829   83.7367   15.2354 O.2     1  UNL1       -0.2704
     20 H          61.6927   81.5274   14.2023 H       1  UNL1        0.1453
     21 H          62.2545   81.8140   15.7866 H       1  UNL1        0.1453
@<TRIPOS>BOND
     1    15    16    1
     2    16    10    1
     3    10    11   ar
     4    11    12   ar
     5    12    13   ar
     6    13    14   ar
     7    14     1    1
     8     1     2    2
     9     2     3    1
    10     3     4    2
    11     4     5    1
    12     5     6    1
    13     6     7    2
    14     7    17    1
    15    17    18   am
    16    17    19    2
    17     7     8    1
    18     8     9    2
    19    14    10   ar
    20     9     1    1
    21     9     4    1
    22    18    20    1
    23    18    21    1
@<TRIPOS>MOLECULE
*****
 21 23 0 0 0
SMALL
GASTEIGER

@<TRIPOS>ATOM
      1 C          63.2883   85.1170   13.3779 C.2     1  UNL1        0.0376
      2 C          63.9642   86.0304   14.3570 C.2     1  UNL1        0.0999
      3 N          63.8812   87.4285   13.8200 N.2     1  UNL1       -0.2478
      4 C          63.1541   87.3792   12.5089 C.2     1  UNL1        0.0634
      5 C          62.7783   88.4505   11.5286 C.3     1  UNL1        0.0719
      6 C          62.0361   88.0932   10.2751 C.2     1  UNL1       -0.0153
      7 C          61.6697   86.6645   10.0019 C.2     1  UNL1        0.0493
      8 C          62.0454   85.5932   10.9822 C.2     1  UNL1        0.0055
      9 C          62.7877   85.9505   12.2357 C.2     1  UNL1        0.0170
     10 N          63.7615   82.5956   12.6272 N.ar    1  UNL1       -0.3090
     11 C          63.3486   81.2439   13.1299 C.ar    1  UNL1        0.1786
     12 N          62.4712   81.4440   14.3299 N.ar    1  UNL1       -0.2223
     13 C          62.3418   82.9192   14.5689 C.ar    1  UNL1        0.1178
     14 C          63.1393   83.6309   13.5165 C.ar    1  UNL1        0.0820
     15 C          64.0722   82.8086   10.0566 C.3     1  UNL1        0.0265
     16 C          64.6420   82.8646   11.4431 C.3     1  UNL1        0.1077
     17 C          60.9274   86.3072    8.7483 C.2     1  UNL1        0.2424
     18 N          59.4948   86.7192    8.5817 N.am    1  UNL1       -0.3253
     19 O          61.6178   85.5379    7.6613 O.2     1  UNL1       -0.2704
     20 H          59.0416   87.2241    9.2951 H       1  UNL1        0.1453
     21 H          59.0076   86.4847    7.7589 H       1  UNL1        0.1453
@<TRIPOS>BOND
     1    15    16    1
     2    16    10    1
     3    10    11   ar
     4    11    12   ar
     5    12    13   ar
     6    13    14   ar
     7    14     1    1
     8     1     2    2
     9     2     3    1
    10     3     4    2
    11     4     5    1
    12     5     6    1
    13     6     7    2
    14     7    17    1
    15    17    18   am
    16    17    19    2
    17     7     8    1
    18     8     9    2
    19    14    10   ar
    20     9     1    1
    21     9     4    1
    22    18    20    1
    23    18    21    1
@<TRIPOS>MOLECULE
*****
 21 23 0 0 0
SMALL
GASTEIGER

@<TRIPOS>ATOM
      1 C          64.2563   90.6061   15.0314 C.2     1  UNL1        0.0376
      2 C          63.6446   91.3548   16.1782 C.2     1  UNL1        0.0999
      3 N          63.0791   90.3506   17.1383 N.2     1  UNL1       -0.2478
      4 C          63.3413   88.9813   16.5848 C.2     1  UNL1        0.0634
      5 C          63.0115   87.6111   17.0983 C.3     1  UNL1        0.0719
      6 C          63.4093   86.3988   16.3096 C.2     1  UNL1       -0.0153
      7 C          64.1369   86.5568   15.0075 C.2     1  UNL1        0.0493
      8 C          64.4667   87.9270   14.4940 C.2     1  UNL1        0.0055
      9 C          64.0689   89.1393   15.2826 C.2     1  UNL1        0.0170
     10 N          66.3546   91.7020   13.7899 N.ar    1  UNL1       -0.3090
     11 C          66.6121   92.2350   12.4116 C.ar    1  UNL1        0.1786
     12 N          65.3526   92.0793   11.6118 N.ar    1  UNL1       -0.2223
     13 C          64.3169   91.4503   12.4959 C.ar    1  UNL1        0.1178
     14 C          64.9362   91.2171   13.8420 C.ar    1  UNL1        0.0820
     15 C          67.2434   92.6545   16.0378 C.3     1  UNL1        0.0265
     16 C          67.3423   91.6612   14.9181 C.3     1  UNL1        0.1077
     17 C          64.5347   85.3444   14.2188 C.2     1  UNL1        0.2424
     18 N          65.8077   84.6215   14.5457 N.am    1  UNL1       -0.3253
     19 O          63.6595   84.8549   13.1033 O.2     1  UNL1       -0.2704
     20 H          66.3821   84.9427   15.2778 H       1  UNL1        0.1453
     21 H          66.0688   83.8258   14.0281 H       1  UNL1        0.1453
@<TRIPOS>BOND
     1    15    16    1
     2    16    10    1
     3    10    11   ar
     4    11    12   ar
     5    12    13   ar
     6    13    14   ar
     7    14     1    1
     8     1     2    2
     9     2     3    1
    10     3     4    2
    11     4     5    1
    12     5     6    1
    13     6     7    2
    14     7    17    1
    15    17    18   am
    16    17    19    2
    17     7     8    1
    18     8     9    2
    19    14    10   ar
    20     9     1    1
    21     9     4    1
    22    18    20    1
    23    18    21    1
@<TRIPOS>MOLECULE
*****
 21 23 0 0 0
SMALL
GASTEIGER

@<TRIPOS>ATOM
      1 C          64.0957   90.6009   14.8290 C.2     1  UNL1        0.0376
      2 C          63.5769   91.3616   16.0131 C.2     1  UNL1        0.0999
      3 N          63.1356   90.3671   17.0457 N.2     1  UNL1       -0.2478
      4 C          63.3816   88.9918   16.4997 C.2     1  UNL1        0.0634
      5 C          63.1419   87.6266   17.0731 C.3     1  UNL1        0.0719
      6 C          63.4956   86.4059   16.2764 C.2     1  UNL1       -0.0153
      7 C          64.0890   86.5504   14.9063 C.2     1  UNL1        0.0493
      8 C          64.3287   87.9156   14.3330 C.2     1  UNL1        0.0055
      9 C          63.9750   89.1363   15.1297 C.2     1  UNL1        0.0170
     10 N          63.9776   91.1714   12.2202 N.ar    1  UNL1       -0.3090
     11 C          64.8700   91.8861   11.2492 C.ar    1  UNL1        0.1786
     12 N          66.0838   92.3561   11.9949 N.ar    1  UNL1       -0.2223
     13 C          65.9415   91.9318   13.4266 C.ar    1  UNL1        0.1178
     14 C          64.6397   91.1997   13.5658 C.ar    1  UNL1        0.0820
     15 C          62.6055   89.2425   11.1493 C.3     1  UNL1        0.0265
     16 C          62.6551   90.5394   11.9015 C.3     1  UNL1        0.1077
     17 C          64.4428   85.3297   14.1097 C.2     1  UNL1        0.2424
     18 N          65.6607   84.5294   14.4646 N.am    1  UNL1       -0.3253
     19 O          63.5785   84.9092   12.9580 O.2     1  UNL1       -0.2704
     20 H          66.2280   84.8053   15.2205 H       1  UNL1        0.1453
     21 H          65.8929   83.7281   13.9417 H       1  UNL1        0.1453
@<TRIPOS>BOND
     1    15    16    1
     2    16    10    1
     3    10    11   ar
     4    11    12   ar
     5    12    13   ar
     6    13    14   ar
     7    14     1    1
     8     1     2    2
     9     2     3    1
    10     3     4    2
    11     4     5    1
    12     5     6    1
    13     6     7    2
    14     7    17    1
    15    17    18   am
    16    17    19    2
    17     7     8    1
    18     8     9    2
    19    14    10   ar
    20     9     1    1
    21     9     4    1
    22    18    20    1
    23    18    21    1
@<TRIPOS>MOLECULE
*****
 21 23 0 0 0
SMALL
GASTEIGER

@<TRIPOS>ATOM
      1 C          62.8664   85.7277   12.1851 C.2     1  UNL1        0.0376
      2 C          63.5446   86.7408   13.0590 C.2     1  UNL1        0.0999
      3 N          63.2343   88.1039   12.5151 N.2     1  UNL1       -0.2478
      4 C          62.3643   87.9331   11.3051 C.2     1  UNL1        0.0634
      5 C          61.7498   88.9252   10.3627 C.3     1  UNL1        0.0719
      6 C          60.9079   88.4486    9.2164 C.2     1  UNL1       -0.0153
      7 C          60.6806   86.9801    9.0125 C.2     1  UNL1        0.0493
      8 C          61.2951   85.9880    9.9549 C.2     1  UNL1        0.0055
      9 C          62.1370   86.4646   11.1012 C.2     1  UNL1        0.0170
     10 N          62.5724   83.4914   13.6196 N.ar    1  UNL1       -0.3090
     11 C          62.7527   82.0269   13.3500 C.ar    1  UNL1        0.1786
     12 N          63.2017   81.8694   11.9275 N.ar    1  UNL1       -0.2223
     13 C          63.2990   83.2365   11.3180 C.ar    1  UNL1        0.1178
     14 C          62.9101   84.2390   12.3638 C.ar    1  UNL1        0.0820
     15 C          63.1471   84.6864   15.8539 C.3     1  UNL1        0.0265
     16 C          62.1319   84.1013   14.9173 C.3     1  UNL1        0.1077
     17 C          59.8387   86.5036    7.8661 C.2     1  UNL1        0.2424
     18 N          58.6136   87.2708    7.4655 N.am    1  UNL1       -0.3253
     19 O          60.2219   85.2598    7.1203 O.2     1  UNL1       -0.2704
     20 H          58.3621   88.0871    7.9550 H       1  UNL1        0.1453
     21 H          58.0610   86.9580    6.7131 H       1  UNL1        0.1453
@<TRIPOS>BOND
     1    15    16    1
     2    16    10    1
     3    10    11   ar
     4    11    12   ar
     5    12    13   ar
     6    13    14   ar
     7    14     1    1
     8     1     2    2
     9     2     3    1
    10     3     4    2
    11     4     5    1
    12     5     6    1
    13     6     7    2
    14     7    17    1
    15    17    18   am
    16    17    19    2
    17     7     8    1
    18     8     9    2
    19    14    10   ar
    20     9     1    1
    21     9     4    1
    22    18    20    1
    23    18    21    1
@<TRIPOS>MOLECULE
*****
 21 23 0 0 0
SMALL
GASTEIGER

@<TRIPOS>ATOM
      1 C          62.1875   87.2428   11.1385 C.2     1  UNL1        0.0376
      2 C          62.7084   88.5954   11.5244 C.2     1  UNL1        0.0999
      3 N          63.5312   88.4376   12.7686 N.2     1  UNL1       -0.2478
      4 C          63.5188   86.9874   13.1517 C.2     1  UNL1        0.0634
      5 C          64.1565   86.2439   14.2877 C.3     1  UNL1        0.0719
      6 C          63.9636   84.7619   14.4162 C.2     1  UNL1       -0.0153
      7 C          63.1332   84.0235   13.4087 C.2     1  UNL1        0.0493
      8 C          62.4955   84.7670   12.2727 C.2     1  UNL1        0.0055
      9 C          62.6884   86.2489   12.1442 C.2     1  UNL1        0.0170
     10 N          61.7272   86.1633    8.7368 N.ar    1  UNL1       -0.3090
     11 C          60.5492   86.1001    7.8104 C.ar    1  UNL1        0.1786
     12 N          59.4121   86.8353    8.4558 N.ar    1  UNL1       -0.2223
     13 C          59.8874   87.3528    9.7811 C.ar    1  UNL1        0.1178
     14 C          61.3183   86.9375    9.9547 C.ar    1  UNL1        0.0820
     15 C          63.4212   84.2236    9.0805 C.3     1  UNL1        0.0265
     16 C          63.0773   85.5585    8.4889 C.3     1  UNL1        0.1077
     17 C          62.9404   82.5414   13.5373 C.2     1  UNL1        0.2424
     18 N          62.3759   81.9655   14.8021 N.am    1  UNL1       -0.3253
     19 O          63.3120   81.6354   12.4011 O.2     1  UNL1       -0.2704
     20 H          62.1320   82.5601   15.5478 H       1  UNL1        0.1453
     21 H          62.2494   80.9928   14.8865 H       1  UNL1        0.1453
@<TRIPOS>BOND
     1    15    16    1
     2    16    10    1
     3    10    11   ar
     4    11    12   ar
     5    12    13   ar
     6    13    14   ar
     7    14     1    1
     8     1     2    2
     9     2     3    1
    10     3     4    2
    11     4     5    1
    12     5     6    1
    13     6     7    2
    14     7    17    1
    15    17    18   am
    16    17    19    2
    17     7     8    1
    18     8     9    2
    19    14    10   ar
    20     9     1    1
    21     9     4    1
    22    18    20    1
    23    18    21    1
@<TRIPOS>MOLECULE
*****
 21 23 0 0 0
SMALL
GASTEIGER

@<TRIPOS>ATOM
      1 C          62.6375   87.2508   11.7818 C.2     1  UNL1        0.0376
      2 C          63.1624   88.5668   12.2742 C.2     1  UNL1        0.0999
      3 N          63.9479   88.3132   13.5267 N.2     1  UNL1       -0.2478
      4 C          63.9085   86.8403   13.8083 C.2     1  UNL1        0.0634
      5 C          64.5055   86.0123   14.9073 C.3     1  UNL1        0.0719
      6 C          64.2926   84.5277   14.9280 C.2     1  UNL1       -0.0153
      7 C          63.4827   83.8711   13.8496 C.2     1  UNL1        0.0493
      8 C          62.8858   84.6991   12.7505 C.2     1  UNL1        0.0055
      9 C          63.0987   86.1837   12.7299 C.2     1  UNL1        0.0170
     10 N          60.4549   87.6500   10.2913 N.ar    1  UNL1       -0.3090
     11 C          59.9821   87.1675    8.9520 C.ar    1  UNL1        0.1786
     12 N          61.0340   86.2581    8.3894 N.ar    1  UNL1       -0.2223
     13 C          62.1567   86.1786    9.3809 C.ar    1  UNL1        0.1178
     14 C          61.7988   87.0389   10.5564 C.ar    1  UNL1        0.0820
     15 C          59.9071   90.0630   11.0835 C.3     1  UNL1        0.0265
     16 C          59.7137   88.5804   11.2051 C.3     1  UNL1        0.1077
     17 C          63.2698   82.3864   13.8703 C.2     1  UNL1        0.2424
     18 N          62.2211   81.7914   14.7625 N.am    1  UNL1       -0.3253
     19 O          64.1057   81.4966   12.9987 O.2     1  UNL1       -0.2704
     20 H          61.6725   82.3754   15.3345 H       1  UNL1        0.1453
     21 H          62.0814   80.8170   14.7761 H       1  UNL1        0.1453
@<TRIPOS>BOND
     1    15    16    1
     2    16    10    1
     3    10    11   ar
     4    11    12   ar
     5    12    13   ar
     6    13    14   ar
     7    14     1    1
     8     1     2    2
     9     2     3    1
    10     3     4    2
    11     4     5    1
    12     5     6    1
    13     6     7    2
    14     7    17    1
    15    17    18   am
    16    17    19    2
    17     7     8    1
    18     8     9    2
    19    14    10   ar
    20     9     1    1
    21     9     4    1
    22    18    20    1
    23    18    21    1
