@<TRIPOS>MOLECULE
*****
 45 48 0 0 0
SMALL
GASTEIGER

@<TRIPOS>ATOM
      1 N          62.2652   89.4858   11.1682 N.pl3   1  UNL1       -0.3043
      2 C          63.5891   89.9736   10.6591 C.3     1  UNL1        0.1123
      3 C          64.5390   90.6707   11.5875 C.3     1  UNL1        0.1149
      4 N          64.1648   90.8800   13.0249 N.am    1  UNL1       -0.2747
      5 C          65.1147   91.5771   13.9533 C.2     1  UNL1        0.2442
      6 O          64.7405   91.7864   15.3907 O.2     1  UNL1       -0.2731
      7 C          62.8409   90.3922   13.5339 C.3     1  UNL1        0.1149
      8 C          61.8910   89.6951   12.6056 C.3     1  UNL1        0.1123
      9 C          58.4659   86.6973    7.4547 C.3     1  UNL1        0.0310
     10 C          59.4157   87.3945    8.3831 C.ar    1  UNL1       -0.0220
     11 C          59.4230   88.8923    8.4627 C.ar    1  UNL1       -0.0030
     12 C          60.3728   89.5894    9.3911 C.ar    1  UNL1        0.0139
     13 C          61.3154   88.7887   10.2398 C.ar    1  UNL1        0.0454
     14 C          61.3081   87.2908   10.1601 C.ar    1  UNL1        0.0085
     15 C          60.3583   86.5937    9.2318 C.ar    1  UNL1       -0.0057
     16 C          62.2507   86.4900   11.0089 C.3     1  UNL1        0.0952
     17 N          63.0880   87.1733   12.0491 N.am    1  UNL1       -0.3021
     18 C          63.3978   86.4749   13.3399 C.2     1  UNL1        0.2241
     19 O          64.2351   87.1581   14.3802 O.2     1  UNL1       -0.2750
     20 H          63.4343   88.0801   11.8846 H       1  UNL1        0.1497
     21 C          62.8702   85.0932   13.5906 C.3     1  UNL1        0.1023
     22 C          63.8224   83.9513   13.7886 C.3     1  UNL1        0.0818
     23 N          63.3062   82.5437   13.8344 N.3     1  UNL1       -0.2699
     24 C          64.1413   81.4206   13.2944 C.3     1  UNL1        0.0897
     25 C          61.9550   82.2591   14.4202 C.3     1  UNL1        0.0897
     26 C          62.3560   85.0061   10.8173 C.3     1  UNL1        0.0242
     27 C          63.2862   84.4476    9.7816 C.3     1  UNL1        0.0020
     28 C          64.2822   83.3915   10.1594 C.3     1  UNL1        0.0001
     29 C          63.2205   84.9453    8.3681 C.3     1  UNL1        0.0001
     30 C          66.4386   92.0649   13.4442 C.3     1  UNL1        0.1564
     31 N          67.4262   92.6793   14.3915 N.am    1  UNL1       -0.2727
     32 C          67.0952   93.5420   15.5732 C.3     1  UNL1        0.0943
     33 C          68.3825   93.9348   16.2354 C.3     1  UNL1        0.0311
     34 C          69.5091   93.3148   15.4630 C.3     1  UNL1        0.0870
     35 C          68.9180   92.5389   14.3235 C.2     1  UNL1        0.2260
     36 O          69.6843   91.7595   13.2962 O.2     1  UNL1       -0.2749
     37 C          66.7751   91.9383   11.9880 C.3     1  UNL1        0.0564
     38 C          66.8890   93.1668   11.1349 C.ar    1  UNL1       -0.0094
     39 C          66.2275   94.4425   11.5652 C.ar    1  UNL1       -0.0025
     40 C          66.3414   95.6711   10.7121 C.ar    1  UNL1        0.0111
     41 C          67.1167   95.6239    9.4289 C.ar    1  UNL1        0.0585
     42 CL         67.2305   96.8525    8.5759 Cl      1  UNL1       -0.0822
     43 C          67.7781   94.3482    8.9987 C.ar    1  UNL1        0.0225
     44 C          67.6643   93.1196    9.8517 C.ar    1  UNL1        0.0546
     45 CL         68.3257   91.8440    9.4215 Cl      1  UNL1       -0.0825
@<TRIPOS>BOND
     1     9    10    1
     2    10    11   ar
     3    11    12   ar
     4    12    13   ar
     5    13     1    1
     6     1     2    1
     7     2     3    1
     8     3     4    1
     9     4     5   am
    10     5     6    2
    11     5    30    1
    12    30    37    1
    13    37    38    1
    14    38    39   ar
    15    39    40   ar
    16    40    41   ar
    17    41    42    1
    18    41    43   ar
    19    43    44   ar
    20    44    45    1
    21    30    31    1
    22    31    32    1
    23    32    33    1
    24    33    34    1
    25    34    35    1
    26    35    36    2
    27     4     7    1
    28     7     8    1
    29    13    14   ar
    30    14    16    1
    31    16    26    1
    32    26    27    1
    33    27    28    1
    34    27    29    1
    35    16    17    1
    36    17    18   am
    37    18    19    2
    38    18    21    1
    39    21    22    1
    40    22    23    1
    41    23    24    1
    42    23    25    1
    43    14    15   ar
    44    15    10   ar
    45     8     1    1
    46    44    38   ar
    47    35    31   am
    48    17    20    1
@<TRIPOS>MOLECULE
*****
 45 48 0 0 0
SMALL
GASTEIGER

@<TRIPOS>ATOM
      1 N          63.4363   85.6699   14.3225 N.pl3   1  UNL1       -0.3043
      2 C          64.0381   86.7108   13.4257 C.3     1  UNL1        0.1123
      3 C          64.2198   88.1145   13.9224 C.3     1  UNL1        0.1149
      4 N          63.7998   88.4772   15.3160 N.am    1  UNL1       -0.2747
      5 C          63.9815   89.8809   15.8127 C.2     1  UNL1        0.2442
      6 O          63.5615   90.2436   17.2062 O.2     1  UNL1       -0.2731
      7 C          63.1980   87.4363   16.2128 C.3     1  UNL1        0.1149
      8 C          63.0163   86.0326   15.7160 C.3     1  UNL1        0.1123
      9 C          62.7094   80.0553   12.3356 C.3     1  UNL1        0.0310
     10 C          62.8911   81.4590   12.8323 C.ar    1  UNL1       -0.0220
     11 C          63.4755   81.7036   14.1919 C.ar    1  UNL1       -0.0030
     12 C          63.6572   83.1073   14.6887 C.ar    1  UNL1        0.0139
     13 C          63.2546   84.2663   13.8258 C.ar    1  UNL1        0.0454
     14 C          62.6702   84.0216   12.4662 C.ar    1  UNL1        0.0085
     15 C          62.4885   82.6179   11.9694 C.ar    1  UNL1       -0.0057
     16 C          62.2676   85.1806   11.6032 C.3     1  UNL1        0.0952
     17 N          61.0676   86.0044   11.9658 N.am    1  UNL1       -0.3021
     18 C          60.7444   87.2432   11.1843 C.2     1  UNL1        0.2241
     19 O          59.5444   88.0670   11.5469 O.2     1  UNL1       -0.2750
     20 H          60.4923   85.7320   12.7168 H       1  UNL1        0.1497
     21 C          61.6210   87.6582   10.0400 C.3     1  UNL1        0.1023
     22 C          61.0732   88.5392    8.9567 C.3     1  UNL1        0.0818
     23 N          59.9919   88.0296    8.0506 N.3     1  UNL1       -0.2699
     24 C          59.6624   86.5664    8.0251 C.3     1  UNL1        0.0897
     25 C          59.2401   88.9831    7.1699 C.3     1  UNL1        0.0897
     26 C          63.0649   85.5158   10.3776 C.3     1  UNL1        0.0242
     27 C          63.3360   84.4599    9.3473 C.3     1  UNL1        0.0020
     28 C          64.1981   83.2812    9.6902 C.3     1  UNL1        0.0001
     29 C          62.7450   84.5826    7.9741 C.3     1  UNL1        0.0001
     30 C          64.5833   90.9218   14.9159 C.3     1  UNL1        0.1564
     31 N          65.8948   91.5547   15.2760 N.am    1  UNL1       -0.2727
     32 C          67.2192   91.2654   14.6338 C.3     1  UNL1        0.0943
     33 C          68.2550   92.1198   15.3024 C.3     1  UNL1        0.0311
     34 C          67.5708   92.9371   16.3578 C.3     1  UNL1        0.0870
     35 C          66.1121   92.5878   16.3415 C.2     1  UNL1        0.2260
     36 O          65.0562   93.1696   17.2340 O.2     1  UNL1       -0.2749
     37 C          63.8737   91.3299   13.6590 C.3     1  UNL1        0.0564
     38 C          64.6145   92.0726   12.5868 C.ar    1  UNL1       -0.0094
     39 C          65.6026   93.1382   12.9585 C.ar    1  UNL1       -0.0025
     40 C          66.3435   93.8809   11.8863 C.ar    1  UNL1        0.0111
     41 C          66.0962   93.5581   10.4425 C.ar    1  UNL1        0.0585
     42 CL         66.8371   94.3007    9.3704 Cl      1  UNL1       -0.0822
     43 C          65.1081   92.4924   10.0709 C.ar    1  UNL1        0.0225
     44 C          64.3673   91.7497   11.1430 C.ar    1  UNL1        0.0546
     45 CL         63.3792   90.6841   10.7713 Cl      1  UNL1       -0.0825
@<TRIPOS>BOND
     1     9    10    1
     2    10    11   ar
     3    11    12   ar
     4    12    13   ar
     5    13     1    1
     6     1     2    1
     7     2     3    1
     8     3     4    1
     9     4     5   am
    10     5     6    2
    11     5    30    1
    12    30    37    1
    13    37    38    1
    14    38    39   ar
    15    39    40   ar
    16    40    41   ar
    17    41    42    1
    18    41    43   ar
    19    43    44   ar
    20    44    45    1
    21    30    31    1
    22    31    32    1
    23    32    33    1
    24    33    34    1
    25    34    35    1
    26    35    36    2
    27     4     7    1
    28     7     8    1
    29    13    14   ar
    30    14    16    1
    31    16    26    1
    32    26    27    1
    33    27    28    1
    34    27    29    1
    35    16    17    1
    36    17    18   am
    37    18    19    2
    38    18    21    1
    39    21    22    1
    40    22    23    1
    41    23    24    1
    42    23    25    1
    43    14    15   ar
    44    15    10   ar
    45     8     1    1
    46    44    38   ar
    47    35    31   am
    48    17    20    1
@<TRIPOS>MOLECULE
*****
 45 48 0 0 0
SMALL
GASTEIGER

@<TRIPOS>ATOM
      1 N          63.7109   86.6548   14.8227 N.pl3   1  UNL1       -0.3043
      2 C          64.6260   87.4337   13.9250 C.3     1  UNL1        0.1123
      3 C          64.8415   88.8989   14.1627 C.3     1  UNL1        0.1149
      4 N          64.1419   89.5854   15.2982 N.am    1  UNL1       -0.2747
      5 C          64.3575   91.0507   15.5359 C.2     1  UNL1        0.2442
      6 O          63.6579   91.7371   16.6714 O.2     1  UNL1       -0.2731
      7 C          63.2269   88.8065   16.1959 C.3     1  UNL1        0.1149
      8 C          63.0114   87.3413   15.9582 C.3     1  UNL1        0.1123
      9 C          62.8488   80.7937   13.8718 C.3     1  UNL1        0.0310
     10 C          63.0643   82.2590   14.1095 C.ar    1  UNL1       -0.0220
     11 C          63.5900   82.7350   15.4312 C.ar    1  UNL1       -0.0030
     12 C          63.8055   84.2003   15.6690 C.ar    1  UNL1        0.0139
     13 C          63.4954   85.1896   14.5850 C.ar    1  UNL1        0.0454
     14 C          62.9697   84.7135   13.2632 C.ar    1  UNL1        0.0085
     15 C          62.7542   83.2483   13.0255 C.ar    1  UNL1       -0.0057
     16 C          62.6596   85.7028   12.1791 C.3     1  UNL1        0.0952
     17 N          62.9706   87.1566   12.3790 N.am    1  UNL1       -0.3021
     18 C          62.1211   88.2027   11.7204 C.2     1  UNL1        0.2241
     19 O          62.4321   89.6565   11.9202 O.2     1  UNL1       -0.2750
     20 H          63.7323   87.4240   12.9425 H       1  UNL1        0.1497
     21 C          60.9606   87.7952   10.8618 C.3     1  UNL1        0.1023
     22 C          59.8895   88.7904   10.5268 C.3     1  UNL1        0.0818
     23 N          59.2257   89.5743   11.6199 N.3     1  UNL1       -0.2699
     24 C          59.1405   91.0689   11.5256 C.3     1  UNL1        0.0897
     25 C          58.6471   88.8635   12.8074 C.3     1  UNL1        0.0897
     26 C          62.0385   85.2384   10.8952 C.3     1  UNL1        0.0242
     27 C          62.9103   84.8345    9.7434 C.3     1  UNL1        0.0020
     28 C          63.8403   83.6655    9.8805 C.3     1  UNL1        0.0001
     29 C          62.8520   85.5994    8.4544 C.3     1  UNL1        0.0001
     30 C          65.2725   91.8295   14.6382 C.3     1  UNL1        0.1564
     31 N          66.5529   92.3935   15.1794 N.am    1  UNL1       -0.2727
     32 C          67.5056   91.6914   16.1009 C.3     1  UNL1        0.0943
     33 C          68.6467   92.6225   16.3851 C.3     1  UNL1        0.0311
     34 C          68.3992   93.9002   15.6391 C.3     1  UNL1        0.0870
     35 C          67.1051   93.7586   14.8940 C.2     1  UNL1        0.2260
     36 O          66.4741   94.7994   14.0173 O.2     1  UNL1       -0.2749
     37 C          64.9074   92.0444   13.1993 C.3     1  UNL1        0.0564
     38 C          65.9813   92.1038   12.1538 C.ar    1  UNL1       -0.0094
     39 C          67.4098   91.8437   12.5303 C.ar    1  UNL1       -0.0025
     40 C          68.4838   91.9031   11.4848 C.ar    1  UNL1        0.0111
     41 C          68.1293   92.2226   10.0628 C.ar    1  UNL1        0.0585
     42 CL         69.2032   92.2821    9.0173 Cl      1  UNL1       -0.0822
     43 C          66.7008   92.4828    9.6863 C.ar    1  UNL1        0.0225
     44 C          65.6268   92.4233   10.7317 C.ar    1  UNL1        0.0546
     45 CL         64.1984   92.6835   10.3552 Cl      1  UNL1       -0.0825
@<TRIPOS>BOND
     1     9    10    1
     2    10    11   ar
     3    11    12   ar
     4    12    13   ar
     5    13     1    1
     6     1     2    1
     7     2     3    1
     8     3     4    1
     9     4     5   am
    10     5     6    2
    11     5    30    1
    12    30    37    1
    13    37    38    1
    14    38    39   ar
    15    39    40   ar
    16    40    41   ar
    17    41    42    1
    18    41    43   ar
    19    43    44   ar
    20    44    45    1
    21    30    31    1
    22    31    32    1
    23    32    33    1
    24    33    34    1
    25    34    35    1
    26    35    36    2
    27     4     7    1
    28     7     8    1
    29    13    14   ar
    30    14    16    1
    31    16    26    1
    32    26    27    1
    33    27    28    1
    34    27    29    1
    35    16    17    1
    36    17    18   am
    37    18    19    2
    38    18    21    1
    39    21    22    1
    40    22    23    1
    41    23    24    1
    42    23    25    1
    43    14    15   ar
    44    15    10   ar
    45     8     1    1
    46    44    38   ar
    47    35    31   am
    48    17    20    1
@<TRIPOS>MOLECULE
*****
 45 48 0 0 0
SMALL
GASTEIGER

@<TRIPOS>ATOM
      1 N          62.1147   89.4907   11.3501 N.pl3   1  UNL1       -0.3043
      2 C          63.2815   90.3251   10.9115 C.3     1  UNL1        0.1123
      3 C          64.0968   91.0678   11.9282 C.3     1  UNL1        0.1149
      4 N          63.7454   90.9760   13.3836 N.am    1  UNL1       -0.2747
      5 C          64.5608   91.7186   14.4003 C.2     1  UNL1        0.2442
      6 O          64.2094   91.6268   15.8556 O.2     1  UNL1       -0.2731
      7 C          62.5787   90.1416   13.8222 C.3     1  UNL1        0.1149
      8 C          61.7633   89.3990   12.8055 C.3     1  UNL1        0.1123
      9 C          58.8533   86.5202    7.2833 C.3     1  UNL1        0.0310
     10 C          59.6687   87.2629    8.3000 C.ar    1  UNL1       -0.0220
     11 C          59.5743   88.7571    8.3908 C.ar    1  UNL1       -0.0030
     12 C          60.3896   89.4997    9.4075 C.ar    1  UNL1        0.0139
     13 C          61.2994   88.7481   10.3334 C.ar    1  UNL1        0.0454
     14 C          61.3938   87.2539   10.2426 C.ar    1  UNL1        0.0085
     15 C          60.5784   86.5112    9.2259 C.ar    1  UNL1       -0.0057
     16 C          62.3036   86.5022   11.1686 C.3     1  UNL1        0.0952
     17 N          63.0962   87.2418   12.2052 N.am    1  UNL1       -0.3021
     18 C          63.6252   86.5140   13.4053 C.2     1  UNL1        0.2241
     19 O          64.4178   87.2536   14.4420 O.2     1  UNL1       -0.2750
     20 H          63.2692   88.2051   12.0979 H       1  UNL1        0.1497
     21 C          63.3617   85.0463   13.5688 C.3     1  UNL1        0.1023
     22 C          62.5142   84.5587   14.7063 C.3     1  UNL1        0.0818
     23 N          62.5631   85.2589   16.0318 N.3     1  UNL1       -0.2699
     24 C          61.3440   85.9582   16.5561 C.3     1  UNL1        0.0897
     25 C          63.8310   85.2598   16.8333 C.3     1  UNL1        0.0897
     26 C          62.4208   85.0109   11.0578 C.3     1  UNL1        0.0242
     27 C          63.3200   84.4041   10.0219 C.3     1  UNL1        0.0020
     28 C          63.3219   84.9429    8.6219 C.3     1  UNL1        0.0001
     29 C          64.2173   83.2585   10.3858 C.3     1  UNL1        0.0001
     30 C          65.7275   92.5530   13.9617 C.3     1  UNL1        0.1564
     31 N          66.9809   92.5817   14.7853 N.am    1  UNL1       -0.2727
     32 C          67.6171   91.4049   15.4639 C.3     1  UNL1        0.0943
     33 C          68.8474   91.8881   16.1730 C.3     1  UNL1        0.0311
     34 C          68.9717   93.3635   15.9325 C.3     1  UNL1        0.0870
     35 C          67.8181   93.7922   15.0749 C.2     1  UNL1        0.2260
     36 O          67.5490   95.1865   14.5917 O.2     1  UNL1       -0.2749
     37 C          65.6410   93.3588   12.6994 C.3     1  UNL1        0.0564
     38 C          66.5651   93.0625   11.5557 C.ar    1  UNL1       -0.0094
     39 C          67.5272   91.9154   11.6467 C.ar    1  UNL1       -0.0025
     40 C          68.4514   91.6190   10.5029 C.ar    1  UNL1        0.0111
     41 C          68.4133   92.4698    9.2681 C.ar    1  UNL1        0.0585
     42 CL         69.3374   92.1735    8.1243 Cl      1  UNL1       -0.0822
     43 C          67.4510   93.6170    9.1771 C.ar    1  UNL1        0.0225
     44 C          66.5270   93.9133   10.3209 C.ar    1  UNL1        0.0546
     45 CL         65.5648   95.0604   10.2298 Cl      1  UNL1       -0.0825
@<TRIPOS>BOND
     1     9    10    1
     2    10    11   ar
     3    11    12   ar
     4    12    13   ar
     5    13     1    1
     6     1     2    1
     7     2     3    1
     8     3     4    1
     9     4     5   am
    10     5     6    2
    11     5    30    1
    12    30    37    1
    13    37    38    1
    14    38    39   ar
    15    39    40   ar
    16    40    41   ar
    17    41    42    1
    18    41    43   ar
    19    43    44   ar
    20    44    45    1
    21    30    31    1
    22    31    32    1
    23    32    33    1
    24    33    34    1
    25    34    35    1
    26    35    36    2
    27     4     7    1
    28     7     8    1
    29    13    14   ar
    30    14    16    1
    31    16    26    1
    32    26    27    1
    33    27    28    1
    34    27    29    1
    35    16    17    1
    36    17    18   am
    37    18    19    2
    38    18    21    1
    39    21    22    1
    40    22    23    1
    41    23    24    1
    42    23    25    1
    43    14    15   ar
    44    15    10   ar
    45     8     1    1
    46    44    38   ar
    47    35    31   am
    48    17    20    1
@<TRIPOS>MOLECULE
*****
 45 48 0 0 0
SMALL
GASTEIGER

@<TRIPOS>ATOM
      1 N          63.5978   86.3629   14.2668 N.pl3   1  UNL1       -0.3043
      2 C          63.8419   87.1955   13.0432 C.3     1  UNL1        0.1123
      3 C          63.9920   88.6829   13.1659 C.3     1  UNL1        0.1149
      4 N          63.8980   89.3377   14.5121 N.am    1  UNL1       -0.2747
      5 C          64.0481   90.8251   14.6347 C.2     1  UNL1        0.2442
      6 O          63.9541   91.4800   15.9809 O.2     1  UNL1       -0.2731
      7 C          63.6539   88.5051   15.7356 C.3     1  UNL1        0.1149
      8 C          63.5037   87.0177   15.6130 C.3     1  UNL1        0.1123
      9 C          62.9973   80.4132   13.7762 C.3     1  UNL1        0.0310
     10 C          63.1474   81.9006   13.8988 C.ar    1  UNL1       -0.0220
     11 C          63.7360   82.4949   15.1439 C.ar    1  UNL1       -0.0030
     12 C          63.8861   83.9823   15.2666 C.ar    1  UNL1        0.0139
     13 C          63.4476   84.8754   14.1441 C.ar    1  UNL1        0.0454
     14 C          62.8591   84.2812   12.8990 C.ar    1  UNL1        0.0085
     15 C          62.7090   82.7937   12.7763 C.ar    1  UNL1       -0.0057
     16 C          62.4206   85.1743   11.7764 C.3     1  UNL1        0.0952
     17 N          61.1431   85.9519   11.8919 N.am    1  UNL1       -0.3021
     18 C          60.8445   87.0528   10.9179 C.2     1  UNL1        0.2241
     19 O          59.5670   87.8304   11.0334 O.2     1  UNL1       -0.2750
     20 H          60.5006   85.7397   12.6071 H       1  UNL1        0.1497
     21 C          61.8234   87.3761    9.8282 C.3     1  UNL1        0.1023
     22 C          61.4130   87.2534    8.3907 C.3     1  UNL1        0.0818
     23 N          60.0362   87.6702    7.9656 N.3     1  UNL1       -0.2699
     24 C          58.9759   86.6340    7.7373 C.3     1  UNL1        0.0897
     25 C          59.7197   89.1232    7.7688 C.3     1  UNL1        0.0897
     26 C          63.2596   85.2898   10.5384 C.3     1  UNL1        0.0242
     27 C          63.3960   84.1175    9.6127 C.3     1  UNL1        0.0020
     28 C          62.8140   84.1807    8.2316 C.3     1  UNL1        0.0001
     29 C          64.1142   82.8819   10.0681 C.3     1  UNL1        0.0001
     30 C          64.2923   91.6577   13.4112 C.3     1  UNL1        0.1564
     31 N          63.5259   91.3824   12.1514 N.am    1  UNL1       -0.2727
     32 C          62.1631   90.7613   12.0663 C.3     1  UNL1        0.0943
     33 C          61.7827   90.6748   10.6180 C.3     1  UNL1        0.0311
     34 C          62.9104   91.2425    9.8079 C.3     1  UNL1        0.0870
     35 C          63.9877   91.6798   10.7556 C.2     1  UNL1        0.2260
     36 O          65.2969   92.3047   10.3744 O.2     1  UNL1       -0.2749
     37 C          65.3028   92.7657   13.4473 C.3     1  UNL1        0.0564
     38 C          66.5348   92.6298   14.2919 C.ar    1  UNL1       -0.0094
     39 C          66.4872   92.9803   15.7496 C.ar    1  UNL1       -0.0025
     40 C          67.7193   92.8444   16.5943 C.ar    1  UNL1        0.0111
     41 C          68.9990   92.3581   15.9813 C.ar    1  UNL1        0.0585
     42 CL         70.2311   92.2222   16.8260 Cl      1  UNL1       -0.0822
     43 C          69.0466   92.0076   14.5235 C.ar    1  UNL1        0.0225
     44 C          67.8146   92.1435   13.6789 C.ar    1  UNL1        0.0546
     45 CL         67.8622   91.7930   12.2212 Cl      1  UNL1       -0.0825
@<TRIPOS>BOND
     1     9    10    1
     2    10    11   ar
     3    11    12   ar
     4    12    13   ar
     5    13     1    1
     6     1     2    1
     7     2     3    1
     8     3     4    1
     9     4     5   am
    10     5     6    2
    11     5    30    1
    12    30    37    1
    13    37    38    1
    14    38    39   ar
    15    39    40   ar
    16    40    41   ar
    17    41    42    1
    18    41    43   ar
    19    43    44   ar
    20    44    45    1
    21    30    31    1
    22    31    32    1
    23    32    33    1
    24    33    34    1
    25    34    35    1
    26    35    36    2
    27     4     7    1
    28     7     8    1
    29    13    14   ar
    30    14    16    1
    31    16    26    1
    32    26    27    1
    33    27    28    1
    34    27    29    1
    35    16    17    1
    36    17    18   am
    37    18    19    2
    38    18    21    1
    39    21    22    1
    40    22    23    1
    41    23    24    1
    42    23    25    1
    43    14    15   ar
    44    15    10   ar
    45     8     1    1
    46    44    38   ar
    47    35    31   am
    48    17    20    1
@<TRIPOS>MOLECULE
*****
 45 48 0 0 0
SMALL
GASTEIGER

@<TRIPOS>ATOM
      1 N          63.6744   86.2309   14.2501 N.pl3   1  UNL1       -0.3043
      2 C          63.9052   87.0795   13.0350 C.3     1  UNL1        0.1123
      3 C          64.1607   88.5500   13.1845 C.3     1  UNL1        0.1149
      4 N          64.1852   89.1720   14.5492 N.am    1  UNL1       -0.2747
      5 C          64.4406   90.6425   14.6988 C.2     1  UNL1        0.2442
      6 O          64.4652   91.2645   16.0635 O.2     1  UNL1       -0.2731
      7 C          63.9544   88.3234   15.7644 C.3     1  UNL1        0.1149
      8 C          63.6989   86.8529   15.6148 C.3     1  UNL1        0.1123
      9 C          62.6527   80.3489   13.6520 C.3     1  UNL1        0.0310
     10 C          62.9081   81.8194   13.8015 C.ar    1  UNL1       -0.0220
     11 C          63.5596   82.3447   15.0463 C.ar    1  UNL1       -0.0030
     12 C          63.8150   83.8152   15.1959 C.ar    1  UNL1        0.0139
     13 C          63.4190   84.7604   14.1006 C.ar    1  UNL1        0.0454
     14 C          62.7675   84.2351   12.8558 C.ar    1  UNL1        0.0085
     15 C          62.5121   82.7646   12.7062 C.ar    1  UNL1       -0.0057
     16 C          62.3715   85.1804   11.7604 C.3     1  UNL1        0.0952
     17 N          61.1231   86.0013   11.8931 N.am    1  UNL1       -0.3021
     18 C          60.8439   87.1051   10.9166 C.2     1  UNL1        0.2241
     19 O          59.5955   87.9260   11.0494 O.2     1  UNL1       -0.2750
     20 H          60.4869   85.8156   12.6212 H       1  UNL1        0.1497
     21 C          61.8132   87.3880    9.8073 C.3     1  UNL1        0.1023
     22 C          61.3787   87.2498    8.3783 C.3     1  UNL1        0.0818
     23 N          60.0040   87.6864    7.9668 N.3     1  UNL1       -0.2699
     24 C          59.7094   89.1429    7.7624 C.3     1  UNL1        0.0897
     25 C          58.9238   86.6665    7.7596 C.3     1  UNL1        0.0897
     26 C          63.2238   85.3046   10.5324 C.3     1  UNL1        0.0242
     27 C          63.3884   84.1319    9.6118 C.3     1  UNL1        0.0020
     28 C          62.8478   84.1940    8.2139 C.3     1  UNL1        0.0001
     29 C          64.0934   82.8969   10.0891 C.3     1  UNL1        0.0001
     30 C          64.6715   91.4910   13.4836 C.3     1  UNL1        0.1564
     31 N          63.8296   91.2912   12.2583 N.am    1  UNL1       -0.2727
     32 C          64.2286   91.6224   10.8508 C.3     1  UNL1        0.0943
     33 C          63.0865   91.2610    9.9480 C.3     1  UNL1        0.0311
     34 C          61.9816   90.7064   10.7976 C.3     1  UNL1        0.0870
     35 C          62.4409   90.7251   12.2254 C.2     1  UNL1        0.2260
     36 O          61.6502   90.2594   13.4120 O.2     1  UNL1       -0.2749
     37 C          65.7443   92.5393   13.4937 C.3     1  UNL1        0.0564
     38 C          66.2592   93.0979   12.2003 C.ar    1  UNL1       -0.0094
     39 C          65.5454   94.2397   11.5394 C.ar    1  UNL1       -0.0025
     40 C          66.0603   94.7983   10.2460 C.ar    1  UNL1        0.0111
     41 C          67.2891   94.2151    9.6135 C.ar    1  UNL1        0.0585
     42 CL         67.8040   94.7737    8.3202 Cl      1  UNL1       -0.0822
     43 C          68.0029   93.0733   10.2745 C.ar    1  UNL1        0.0225
     44 C          67.4880   92.5147   11.5678 C.ar    1  UNL1        0.0546
     45 CL         68.2018   91.3730   12.2287 Cl      1  UNL1       -0.0825
@<TRIPOS>BOND
     1     9    10    1
     2    10    11   ar
     3    11    12   ar
     4    12    13   ar
     5    13     1    1
     6     1     2    1
     7     2     3    1
     8     3     4    1
     9     4     5   am
    10     5     6    2
    11     5    30    1
    12    30    37    1
    13    37    38    1
    14    38    39   ar
    15    39    40   ar
    16    40    41   ar
    17    41    42    1
    18    41    43   ar
    19    43    44   ar
    20    44    45    1
    21    30    31    1
    22    31    32    1
    23    32    33    1
    24    33    34    1
    25    34    35    1
    26    35    36    2
    27     4     7    1
    28     7     8    1
    29    13    14   ar
    30    14    16    1
    31    16    26    1
    32    26    27    1
    33    27    28    1
    34    27    29    1
    35    16    17    1
    36    17    18   am
    37    18    19    2
    38    18    21    1
    39    21    22    1
    40    22    23    1
    41    23    24    1
    42    23    25    1
    43    14    15   ar
    44    15    10   ar
    45     8     1    1
    46    44    38   ar
    47    35    31   am
    48    17    20    1
@<TRIPOS>MOLECULE
*****
 45 48 0 0 0
SMALL
GASTEIGER

@<TRIPOS>ATOM
      1 N          62.0038   89.3768   10.2727 N.pl3   1  UNL1       -0.3043
      2 C          62.2446   89.0884   11.7248 C.3     1  UNL1        0.1123
      3 C          63.1944   89.9421   12.5116 C.3     1  UNL1        0.1149
      4 N          63.9034   91.0843   11.8462 N.am    1  UNL1       -0.2747
      5 C          64.8532   91.9380   12.6330 C.2     1  UNL1        0.2442
      6 O          65.5622   93.0802   11.9676 O.2     1  UNL1       -0.2731
      7 C          63.6626   91.3727   10.3940 C.3     1  UNL1        0.1149
      8 C          62.7128   90.5190    9.6073 C.3     1  UNL1        0.1123
      9 C          58.2046   85.9618    7.1256 C.3     1  UNL1        0.0310
     10 C          59.1544   86.8156    7.9124 C.ar    1  UNL1       -0.0220
     11 C          59.0973   88.3095    7.7901 C.ar    1  UNL1       -0.0030
     12 C          60.0471   89.1632    8.5769 C.ar    1  UNL1        0.0139
     13 C          61.0540   88.5231    9.4859 C.ar    1  UNL1        0.0454
     14 C          61.1111   87.0292    9.6081 C.ar    1  UNL1        0.0085
     15 C          60.1612   86.1754    8.8214 C.ar    1  UNL1       -0.0057
     16 C          62.1180   86.3889   10.5172 C.3     1  UNL1        0.0952
     17 N          61.8312   86.2636   11.9842 N.am    1  UNL1       -0.3021
     18 C          62.1325   84.9805   12.7003 C.2     1  UNL1        0.2241
     19 O          61.8456   84.8552   14.1673 O.2     1  UNL1       -0.2750
     20 H          61.4452   87.0235   12.4770 H       1  UNL1        0.1497
     21 C          62.7206   83.8227   11.9495 C.3     1  UNL1        0.1023
     22 C          63.3598   82.6906   12.6976 C.3     1  UNL1        0.0818
     23 N          62.5672   81.4563   13.0106 N.3     1  UNL1       -0.2699
     24 C          61.6041   81.4549   14.1607 C.3     1  UNL1        0.0897
     25 C          62.7375   80.2232   12.1735 C.3     1  UNL1        0.0897
     26 C          63.4116   85.8741    9.9592 C.3     1  UNL1        0.0242
     27 C          63.4047   84.7600    8.9548 C.3     1  UNL1        0.0020
     28 C          63.9343   83.4079    9.3309 C.3     1  UNL1        0.0001
     29 C          62.8682   84.9981    7.5745 C.3     1  UNL1        0.0001
     30 C          65.0940   91.6496   14.0851 C.3     1  UNL1        0.1564
     31 N          66.4300   91.9496   14.6979 N.am    1  UNL1       -0.2727
     32 C          67.7633   91.7823   14.0312 C.3     1  UNL1        0.0943
     33 C          68.8245   92.1987   15.0061 C.3     1  UNL1        0.0311
     34 C          68.1470   92.6235   16.2753 C.3     1  UNL1        0.0870
     35 C          66.6671   92.4695   16.0847 C.2     1  UNL1        0.2260
     36 O          65.6101   92.7807   17.1024 O.2     1  UNL1       -0.2749
     37 C          63.9990   91.0612   14.9246 C.3     1  UNL1        0.0564
     38 C          64.0025   89.5952   15.2418 C.ar    1  UNL1       -0.0094
     39 C          64.7381   88.6372   14.3523 C.ar    1  UNL1       -0.0025
     40 C          64.7416   87.1711   14.6695 C.ar    1  UNL1        0.0111
     41 C          64.0096   86.6630   15.8762 C.ar    1  UNL1        0.0585
     42 CL         64.0131   85.1970   16.1934 Cl      1  UNL1       -0.0822
     43 C          63.2740   87.6211   16.7656 C.ar    1  UNL1        0.0225
     44 C          63.2705   89.0871   16.4484 C.ar    1  UNL1        0.0546
     45 CL         62.5349   90.0451   17.3379 Cl      1  UNL1       -0.0825
@<TRIPOS>BOND
     1     9    10    1
     2    10    11   ar
     3    11    12   ar
     4    12    13   ar
     5    13     1    1
     6     1     2    1
     7     2     3    1
     8     3     4    1
     9     4     5   am
    10     5     6    2
    11     5    30    1
    12    30    37    1
    13    37    38    1
    14    38    39   ar
    15    39    40   ar
    16    40    41   ar
    17    41    42    1
    18    41    43   ar
    19    43    44   ar
    20    44    45    1
    21    30    31    1
    22    31    32    1
    23    32    33    1
    24    33    34    1
    25    34    35    1
    26    35    36    2
    27     4     7    1
    28     7     8    1
    29    13    14   ar
    30    14    16    1
    31    16    26    1
    32    26    27    1
    33    27    28    1
    34    27    29    1
    35    16    17    1
    36    17    18   am
    37    18    19    2
    38    18    21    1
    39    21    22    1
    40    22    23    1
    41    23    24    1
    42    23    25    1
    43    14    15   ar
    44    15    10   ar
    45     8     1    1
    46    44    38   ar
    47    35    31   am
    48    17    20    1
