@<TRIPOS>MOLECULE
*****
 39 44 0 0 0
SMALL
GASTEIGER

@<TRIPOS>ATOM
      1 O          57.8756   87.9951    6.6779 O.2     1  UNL1       -0.2749
      2 C          58.9960   88.9571    6.9409 C.2     1  UNL1        0.2252
      3 N          59.8780   88.7714    8.1398 N.am    1  UNL1       -0.2794
      4 C          59.6397   87.6237    9.0758 C.3     1  UNL1        0.0953
      5 C          60.5217   87.4380   10.2747 C.3     1  UNL1        0.0442
      6 C          61.6422   88.4001   10.5378 C.3     1  UNL1        0.0933
      7 C          61.8805   89.5477    9.6018 C.3     1  UNL1        0.0442
      8 C          60.9985   89.7334    8.4029 C.3     1  UNL1        0.0953
      9 N          62.5242   88.2144   11.7368 N.ar    1  UNL1       -0.2817
     10 C          62.8173   86.9130   12.4227 C.ar    1  UNL1        0.3317
     11 O          62.2798   85.5688   12.0300 O.2     1  UNL1       -0.2463
     12 N          63.7423   87.1919   13.5701 N.ar    1  UNL1       -0.2758
     13 C          64.0209   88.6656   13.5934 C.ar    1  UNL1        0.0800
     14 C          64.8627   89.5137   14.5000 C.ar    1  UNL1        0.0188
     15 C          64.9518   90.9938   14.2734 C.ar    1  UNL1        0.0016
     16 C          64.1990   91.6258   13.1403 C.ar    1  UNL1        0.0016
     17 C          63.3572   90.7777   12.2338 C.ar    1  UNL1        0.0188
     18 C          63.2681   89.2976   12.4603 C.ar    1  UNL1        0.0796
     19 C          64.2921   86.1755   14.5264 C.3     1  UNL1        0.1373
     20 C          63.9424   84.7259   14.3633 C.ar    1  UNL1        0.0006
     21 C          62.7868   84.1432   15.1216 C.ar    1  UNL1       -0.0015
     22 C          62.4370   82.6937   14.9585 C.ar    1  UNL1        0.0111
     23 C          63.2429   81.8269   14.0370 C.ar    1  UNL1        0.0577
     24 CL         62.8932   80.3774   13.8739 Cl      1  UNL1       -0.0822
     25 C          64.3985   82.4096   13.2787 C.ar    1  UNL1        0.0111
     26 C          64.7483   83.8590   13.4418 C.ar    1  UNL1       -0.0015
     27 C          59.2344   90.1048    6.0049 C.3     1  UNL1        0.0795
     28 C          58.0834   90.9509    5.5473 C.3     1  UNL1        0.0264
     29 C          58.3218   92.0985    4.6114 C.3     1  UNL1        0.0729
     30 N          59.7112   92.4001    4.1330 N.3     1  UNL1       -0.2689
     31 C          60.8622   91.5540    4.5907 C.3     1  UNL1        0.0729
     32 C          60.6238   90.4063    5.5266 C.3     1  UNL1        0.0264
     33 C          59.9495   93.5478    3.1971 C.3     1  UNL1        0.0992
     34 C          60.5099   93.2958    1.8287 C.ar    1  UNL1       -0.0031
     35 C          59.6417   92.6986    0.7612 C.ar    1  UNL1        0.0178
     36 C          60.2020   92.4466   -0.6072 C.ar    1  UNL1        0.0986
     37 N          61.6304   92.7917   -0.9081 N.ar    1  UNL1       -0.2423
     38 C          62.4985   93.3889    0.1595 C.ar    1  UNL1        0.0986
     39 C          61.9383   93.6410    1.5279 C.ar    1  UNL1        0.0178
@<TRIPOS>BOND
     1     1     2    2
     2     2    27    1
     3    27    28    1
     4    28    29    1
     5    29    30    1
     6    30    33    1
     7    33    34    1
     8    34    35   ar
     9    35    36   ar
    10    36    37   ar
    11    37    38   ar
    12    38    39   ar
    13    30    31    1
    14    31    32    1
    15     2     3   am
    16     3     4    1
    17     4     5    1
    18     5     6    1
    19     6     9    1
    20     9    10   ar
    21    10    11    2
    22    10    12   ar
    23    12    19    1
    24    19    20    1
    25    20    21   ar
    26    21    22   ar
    27    22    23   ar
    28    23    24    1
    29    23    25   ar
    30    25    26   ar
    31    12    13   ar
    32    13    14   ar
    33    14    15   ar
    34    15    16   ar
    35    16    17   ar
    36    17    18   ar
    37     6     7    1
    38     7     8    1
    39    32    27    1
    40     8     3    1
    41    39    34   ar
    42    18     9   ar
    43    26    20   ar
    44    18    13   ar
@<TRIPOS>MOLECULE
*****
 39 44 0 0 0
SMALL
GASTEIGER

@<TRIPOS>ATOM
      1 O          58.6001   87.4289    6.9901 O.2     1  UNL1       -0.2749
      2 C          59.4196   88.6533    7.2717 C.2     1  UNL1        0.2252
      3 N          60.2190   88.7458    8.5375 N.am    1  UNL1       -0.2794
      4 C          60.1990   87.6140    9.5217 C.3     1  UNL1        0.0953
      5 C          60.9984   87.7065   10.7875 C.3     1  UNL1        0.0442
      6 C          61.8180   88.9309   11.0692 C.3     1  UNL1        0.0933
      7 C          61.8381   90.0626   10.0850 C.3     1  UNL1        0.0442
      8 C          61.0386   89.9701    8.8192 C.3     1  UNL1        0.0953
      9 N          62.6175   89.0234   12.3350 N.ar    1  UNL1       -0.2817
     10 C          62.9167   90.2790   13.0991 C.ar    1  UNL1        0.3317
     11 O          62.4690   91.6627   12.7315 O.2     1  UNL1       -0.2463
     12 N          63.7423   89.9081   14.2952 N.ar    1  UNL1       -0.2758
     13 C          63.9533   88.4232   14.2705 C.ar    1  UNL1        0.0800
     14 C          64.6885   87.4984   15.1946 C.ar    1  UNL1        0.0188
     15 C          64.7287   86.0267   14.9072 C.ar    1  UNL1        0.0016
     16 C          64.0335   85.4799   13.6956 C.ar    1  UNL1        0.0016
     17 C          63.2982   86.4048   12.7715 C.ar    1  UNL1        0.0188
     18 C          63.2581   87.8764   13.0590 C.ar    1  UNL1        0.0796
     19 C          64.2651   90.8557   15.3339 C.3     1  UNL1        0.1373
     20 C          65.6387   91.4414   15.1913 C.ar    1  UNL1        0.0006
     21 C          66.4582   91.1432   13.9709 C.ar    1  UNL1       -0.0015
     22 C          67.8317   91.7288   13.8282 C.ar    1  UNL1        0.0111
     23 C          68.3857   92.6127   14.9061 C.ar    1  UNL1        0.0577
     24 CL         69.7593   93.1984   14.7635 Cl      1  UNL1       -0.0822
     25 C          67.5662   92.9110   16.1265 C.ar    1  UNL1        0.0111
     26 C          66.1927   92.3253   16.2692 C.ar    1  UNL1       -0.0015
     27 C          59.4396   89.7851    6.2876 C.3     1  UNL1        0.0795
     28 C          58.1700   90.5101    5.9523 C.3     1  UNL1        0.0264
     29 C          58.1901   91.6419    4.9682 C.3     1  UNL1        0.0729
     30 N          59.4798   92.0488    4.3193 N.3     1  UNL1       -0.2689
     31 C          60.7495   91.3238    4.6546 C.3     1  UNL1        0.0729
     32 C          60.7294   90.1919    5.6387 C.3     1  UNL1        0.0264
     33 C          59.4999   93.1806    3.3351 C.3     1  UNL1        0.0992
     34 C          60.2490   93.0382    2.0434 C.ar    1  UNL1       -0.0031
     35 C          61.7314   93.2646    2.0073 C.ar    1  UNL1        0.0178
     36 C          62.4806   93.1222    0.7157 C.ar    1  UNL1        0.0986
     37 N          61.7474   92.7534   -0.5399 N.ar    1  UNL1       -0.2423
     38 C          60.2650   92.5270   -0.5038 C.ar    1  UNL1        0.0986
     39 C          59.5158   92.6694    0.7879 C.ar    1  UNL1        0.0178
@<TRIPOS>BOND
     1     1     2    2
     2     2    27    1
     3    27    28    1
     4    28    29    1
     5    29    30    1
     6    30    33    1
     7    33    34    1
     8    34    35   ar
     9    35    36   ar
    10    36    37   ar
    11    37    38   ar
    12    38    39   ar
    13    30    31    1
    14    31    32    1
    15     2     3   am
    16     3     4    1
    17     4     5    1
    18     5     6    1
    19     6     9    1
    20     9    10   ar
    21    10    11    2
    22    10    12   ar
    23    12    19    1
    24    19    20    1
    25    20    21   ar
    26    21    22   ar
    27    22    23   ar
    28    23    24    1
    29    23    25   ar
    30    25    26   ar
    31    12    13   ar
    32    13    14   ar
    33    14    15   ar
    34    15    16   ar
    35    16    17   ar
    36    17    18   ar
    37     6     7    1
    38     7     8    1
    39    32    27    1
    40     8     3    1
    41    39    34   ar
    42    18     9   ar
    43    26    20   ar
    44    18    13   ar
@<TRIPOS>MOLECULE
*****
 39 44 0 0 0
SMALL
GASTEIGER

@<TRIPOS>ATOM
      1 O          56.8521   90.0561    6.2498 O.2     1  UNL1       -0.2749
      2 C          58.3502   90.0694    6.3224 C.2     1  UNL1        0.2252
      3 N          59.1432   90.8426    5.3108 N.am    1  UNL1       -0.2794
      4 C          58.4380   91.6024    4.2267 C.3     1  UNL1        0.0953
      5 C          59.2310   92.3756    3.2150 C.3     1  UNL1        0.0442
      6 C          60.7293   92.3890    3.2876 C.3     1  UNL1        0.0933
      7 C          61.4344   91.6292    4.3718 C.3     1  UNL1        0.0442
      8 C          60.6414   90.8560    5.3834 C.3     1  UNL1        0.0953
      9 N          61.5223   93.1622    2.2760 N.ar    1  UNL1       -0.2817
     10 C          62.9178   92.8495    1.8236 C.ar    1  UNL1        0.3317
     11 O          63.7655   91.7087    2.3034 O.2     1  UNL1       -0.2463
     12 N          63.3169   93.8779    0.8072 N.ar    1  UNL1       -0.2758
     13 C          62.1681   94.8261    0.6314 C.ar    1  UNL1        0.0800
     14 C          61.9886   96.0352   -0.2380 C.ar    1  UNL1        0.0188
     15 C          60.7000   96.8019   -0.1997 C.ar    1  UNL1        0.0016
     16 C          59.5908   96.3596    0.7081 C.ar    1  UNL1        0.0016
     17 C          59.7703   95.1505    1.5775 C.ar    1  UNL1        0.0188
     18 C          61.0589   94.3838    1.5392 C.ar    1  UNL1        0.0796
     19 C          64.6337   93.9461    0.0921 C.3     1  UNL1        0.1373
     20 C          64.7404   94.6735   -1.2155 C.ar    1  UNL1        0.0006
     21 C          64.1919   94.0526   -2.4660 C.ar    1  UNL1       -0.0015
     22 C          64.2985   94.7799   -3.7735 C.ar    1  UNL1        0.0111
     23 C          64.9535   96.1281   -3.8305 C.ar    1  UNL1        0.0577
     24 CL         65.0602   96.8555   -5.1380 Cl      1  UNL1       -0.0822
     25 C          65.5020   96.7489   -2.5800 C.ar    1  UNL1        0.0111
     26 C          65.3955   96.0217   -1.2725 C.ar    1  UNL1       -0.0015
     27 C          59.0554   89.3097    7.4066 C.3     1  UNL1        0.0795
     28 C          59.0014   87.8108    7.4290 C.3     1  UNL1        0.0264
     29 C          59.7066   87.0510    8.5132 C.3     1  UNL1        0.0729
     30 N          60.4658   87.7901    9.5749 N.3     1  UNL1       -0.2689
     31 C          60.5198   89.2890    9.5526 C.3     1  UNL1        0.0729
     32 C          59.8146   90.0488    8.4684 C.3     1  UNL1        0.0264
     33 C          61.1710   87.0303   10.6591 C.3     1  UNL1        0.0992
     34 C          62.0502   85.8664   10.3093 C.ar    1  UNL1       -0.0031
     35 C          62.3747   84.8332   11.3472 C.ar    1  UNL1        0.0178
     36 C          63.2539   83.6693   10.9975 C.ar    1  UNL1        0.0986
     37 N          63.8086   83.5386    9.6100 N.ar    1  UNL1       -0.2423
     38 C          63.4840   84.5719    8.5721 C.ar    1  UNL1        0.0986
     39 C          62.6048   85.7358    8.9218 C.ar    1  UNL1        0.0178
@<TRIPOS>BOND
     1     1     2    2
     2     2    27    1
     3    27    28    1
     4    28    29    1
     5    29    30    1
     6    30    33    1
     7    33    34    1
     8    34    35   ar
     9    35    36   ar
    10    36    37   ar
    11    37    38   ar
    12    38    39   ar
    13    30    31    1
    14    31    32    1
    15     2     3   am
    16     3     4    1
    17     4     5    1
    18     5     6    1
    19     6     9    1
    20     9    10   ar
    21    10    11    2
    22    10    12   ar
    23    12    19    1
    24    19    20    1
    25    20    21   ar
    26    21    22   ar
    27    22    23   ar
    28    23    24    1
    29    23    25   ar
    30    25    26   ar
    31    12    13   ar
    32    13    14   ar
    33    14    15   ar
    34    15    16   ar
    35    16    17   ar
    36    17    18   ar
    37     6     7    1
    38     7     8    1
    39    32    27    1
    40     8     3    1
    41    39    34   ar
    42    18     9   ar
    43    26    20   ar
    44    18    13   ar
@<TRIPOS>MOLECULE
*****
 39 44 0 0 0
SMALL
GASTEIGER

@<TRIPOS>ATOM
      1 O          62.6826   85.7073   18.1076 O.2     1  UNL1       -0.2749
      2 C          63.0112   85.5955   16.6484 C.2     1  UNL1        0.2252
      3 N          63.3858   86.8205   15.8680 N.am    1  UNL1       -0.2794
      4 C          63.4318   88.1573   16.5469 C.3     1  UNL1        0.0953
      5 C          63.8064   89.3823   15.7666 C.3     1  UNL1        0.0442
      6 C          64.1350   89.2706   14.3072 C.3     1  UNL1        0.0933
      7 C          64.0890   87.9339   13.6284 C.3     1  UNL1        0.0442
      8 C          63.7144   86.7088   14.4087 C.3     1  UNL1        0.0953
      9 N          64.5096   90.4956   13.5269 N.ar    1  UNL1       -0.2817
     10 C          65.4615   91.5667   13.9704 C.ar    1  UNL1        0.3317
     11 O          66.2060   91.6008   15.2722 O.2     1  UNL1       -0.2463
     12 N          65.5383   92.5977   12.8836 N.ar    1  UNL1       -0.2758
     13 C          64.6338   92.1638   11.7684 C.ar    1  UNL1        0.0800
     14 C          64.3070   92.7839   10.4422 C.ar    1  UNL1        0.0188
     15 C          63.3444   92.1048    9.5137 C.ar    1  UNL1        0.0016
     16 C          62.7087   90.8057    9.9112 C.ar    1  UNL1        0.0016
     17 C          63.0355   90.1856   11.2374 C.ar    1  UNL1        0.0188
     18 C          63.9981   90.8647   12.1659 C.ar    1  UNL1        0.0796
     19 C          66.3729   93.8438   12.9078 C.3     1  UNL1        0.1373
     20 C          66.6354   94.5955   11.6364 C.ar    1  UNL1        0.0006
     21 C          67.4433   93.9612   10.5433 C.ar    1  UNL1       -0.0015
     22 C          67.7058   94.7128    9.2720 C.ar    1  UNL1        0.0111
     23 C          67.1602   96.0987    9.0939 C.ar    1  UNL1        0.0577
     24 CL         67.4227   96.8504    7.8226 Cl      1  UNL1       -0.0822
     25 C          66.3523   96.7329   10.1870 C.ar    1  UNL1        0.0111
     26 C          66.0898   95.9814   11.4583 C.ar    1  UNL1       -0.0015
     27 C          62.9653   84.2587   15.9695 C.3     1  UNL1        0.0795
     28 C          64.2199   83.4506   15.8187 C.3     1  UNL1        0.0264
     29 C          64.1739   82.1138   15.1398 C.3     1  UNL1        0.0729
     30 N          62.8733   81.5852   14.6116 N.3     1  UNL1       -0.2689
     31 C          61.6186   82.3934   14.7624 C.3     1  UNL1        0.0729
     32 C          61.6646   83.7302   15.4413 C.3     1  UNL1        0.0264
     33 C          62.8274   80.2484   13.9327 C.3     1  UNL1        0.0992
     34 C          62.8743   80.1655   12.4358 C.ar    1  UNL1       -0.0031
     35 C          63.1725   81.3922   11.6257 C.ar    1  UNL1        0.0178
     36 C          63.2195   81.3093   10.1287 C.ar    1  UNL1        0.0986
     37 N          62.9682   79.9997    9.4419 N.ar    1  UNL1       -0.2423
     38 C          62.6700   78.7730   10.2520 C.ar    1  UNL1        0.0986
     39 C          62.6230   78.8559   11.7489 C.ar    1  UNL1        0.0178
@<TRIPOS>BOND
     1     1     2    2
     2     2    27    1
     3    27    28    1
     4    28    29    1
     5    29    30    1
     6    30    33    1
     7    33    34    1
     8    34    35   ar
     9    35    36   ar
    10    36    37   ar
    11    37    38   ar
    12    38    39   ar
    13    30    31    1
    14    31    32    1
    15     2     3   am
    16     3     4    1
    17     4     5    1
    18     5     6    1
    19     6     9    1
    20     9    10   ar
    21    10    11    2
    22    10    12   ar
    23    12    19    1
    24    19    20    1
    25    20    21   ar
    26    21    22   ar
    27    22    23   ar
    28    23    24    1
    29    23    25   ar
    30    25    26   ar
    31    12    13   ar
    32    13    14   ar
    33    14    15   ar
    34    15    16   ar
    35    16    17   ar
    36    17    18   ar
    37     6     7    1
    38     7     8    1
    39    32    27    1
    40     8     3    1
    41    39    34   ar
    42    18     9   ar
    43    26    20   ar
    44    18    13   ar
@<TRIPOS>MOLECULE
*****
 39 44 0 0 0
SMALL
GASTEIGER

@<TRIPOS>ATOM
      1 O          57.3033   91.1261    5.9369 O.2     1  UNL1       -0.2749
      2 C          58.7366   90.7053    5.8001 C.2     1  UNL1        0.2252
      3 N          59.6006   91.3201    4.7392 N.am    1  UNL1       -0.2794
      4 C          59.0315   92.3556    3.8152 C.3     1  UNL1        0.0953
      5 C          59.8955   92.9704    2.7544 C.3     1  UNL1        0.0442
      6 C          61.3289   92.5497    2.6176 C.3     1  UNL1        0.0933
      7 C          61.8980   91.5143    3.5416 C.3     1  UNL1        0.0442
      8 C          61.0339   90.8995    4.6024 C.3     1  UNL1        0.0953
      9 N          62.1930   93.1645    1.5567 N.ar    1  UNL1       -0.2817
     10 C          62.0842   92.9214    0.0806 C.ar    1  UNL1        0.3317
     11 O          61.0922   92.0209   -0.5940 O.2     1  UNL1       -0.2463
     12 N          63.1415   93.7370   -0.6026 N.ar    1  UNL1       -0.2758
     13 C          63.9038   94.4842    0.4513 C.ar    1  UNL1        0.0800
     14 C          65.0560   95.4410    0.3681 C.ar    1  UNL1        0.0188
     15 C          65.6220   96.0439    1.6195 C.ar    1  UNL1        0.0016
     16 C          65.0357   95.6900    2.9541 C.ar    1  UNL1        0.0016
     17 C          63.8835   94.7333    3.0373 C.ar    1  UNL1        0.0188
     18 C          63.3176   94.1303    1.7858 C.ar    1  UNL1        0.0796
     19 C          63.3926   93.7953   -2.0803 C.3     1  UNL1        0.1373
     20 C          62.4583   94.5605   -2.9702 C.ar    1  UNL1        0.0006
     21 C          62.7953   95.9628   -3.3824 C.ar    1  UNL1       -0.0015
     22 C          61.8612   96.7280   -4.2722 C.ar    1  UNL1        0.0111
     23 C          60.5900   96.0909   -4.7499 C.ar    1  UNL1        0.0577
     24 CL         59.6558   96.8560   -5.6397 Cl      1  UNL1       -0.0822
     25 C          60.2530   94.6885   -4.3377 C.ar    1  UNL1        0.0111
     26 C          61.1871   93.9233   -3.4478 C.ar    1  UNL1       -0.0015
     27 C          59.3057   89.6699    6.7241 C.3     1  UNL1        0.0795
     28 C          60.0935   90.0916    7.9289 C.3     1  UNL1        0.0264
     29 C          60.6627   89.0561    8.8529 C.3     1  UNL1        0.0729
     30 N          60.4441   87.5989    8.5721 N.3     1  UNL1       -0.2689
     31 C          59.6563   87.1772    7.3672 C.3     1  UNL1        0.0729
     32 C          59.0871   88.2127    6.4432 C.3     1  UNL1        0.0264
     33 C          61.0133   86.5635    9.4961 C.3     1  UNL1        0.0992
     34 C          61.8547   86.9825   10.6650 C.ar    1  UNL1       -0.0031
     35 C          62.1640   88.4338   10.8844 C.ar    1  UNL1        0.0178
     36 C          63.0054   88.8530   12.0533 C.ar    1  UNL1        0.0986
     37 N          63.5375   87.8208   13.0028 N.ar    1  UNL1       -0.2423
     38 C          63.2282   86.3695   12.7834 C.ar    1  UNL1        0.0986
     39 C          62.3868   85.9504   11.6145 C.ar    1  UNL1        0.0178
@<TRIPOS>BOND
     1     1     2    2
     2     2    27    1
     3    27    28    1
     4    28    29    1
     5    29    30    1
     6    30    33    1
     7    33    34    1
     8    34    35   ar
     9    35    36   ar
    10    36    37   ar
    11    37    38   ar
    12    38    39   ar
    13    30    31    1
    14    31    32    1
    15     2     3   am
    16     3     4    1
    17     4     5    1
    18     5     6    1
    19     6     9    1
    20     9    10   ar
    21    10    11    2
    22    10    12   ar
    23    12    19    1
    24    19    20    1
    25    20    21   ar
    26    21    22   ar
    27    22    23   ar
    28    23    24    1
    29    23    25   ar
    30    25    26   ar
    31    12    13   ar
    32    13    14   ar
    33    14    15   ar
    34    15    16   ar
    35    16    17   ar
    36    17    18   ar
    37     6     7    1
    38     7     8    1
    39    32    27    1
    40     8     3    1
    41    39    34   ar
    42    18     9   ar
    43    26    20   ar
    44    18    13   ar
@<TRIPOS>MOLECULE
*****
 39 44 0 0 0
SMALL
GASTEIGER

@<TRIPOS>ATOM
      1 O          57.1484   90.8449    5.8406 O.2     1  UNL1       -0.2749
      2 C          58.6323   90.6274    5.8651 C.2     1  UNL1        0.2252
      3 N          59.4947   91.2176    4.7890 N.am    1  UNL1       -0.2794
      4 C          58.8731   92.0252    3.6884 C.3     1  UNL1        0.0953
      5 C          59.7354   92.6154    2.6122 C.3     1  UNL1        0.0442
      6 C          61.2194   92.3978    2.6367 C.3     1  UNL1        0.0933
      7 C          61.8409   91.5902    3.7373 C.3     1  UNL1        0.0442
      8 C          60.9786   91.0001    4.8134 C.3     1  UNL1        0.0953
      9 N          62.0818   92.9880    1.5605 N.ar    1  UNL1       -0.2817
     10 C          61.9553   92.7294    0.0884 C.ar    1  UNL1        0.3317
     11 O          60.9443   91.8352   -0.5660 O.2     1  UNL1       -0.2463
     12 N          63.0174   93.5219   -0.6143 N.ar    1  UNL1       -0.2758
     13 C          63.8002   94.2704    0.4235 C.ar    1  UNL1        0.0800
     14 C          64.9648   95.2098    0.3181 C.ar    1  UNL1        0.0188
     15 C          65.5512   95.8192    1.5570 C.ar    1  UNL1        0.0016
     16 C          64.9730   95.4892    2.9011 C.ar    1  UNL1        0.0016
     17 C          63.8084   94.5498    3.0064 C.ar    1  UNL1        0.0188
     18 C          63.2220   93.9404    1.7676 C.ar    1  UNL1        0.0796
     19 C          63.2549   93.5595   -2.0949 C.3     1  UNL1        0.1373
     20 C          62.3641   94.3835   -2.9768 C.ar    1  UNL1        0.0006
     21 C          61.0029   93.8767   -3.3512 C.ar    1  UNL1       -0.0015
     22 C          60.1121   94.7007   -4.2330 C.ar    1  UNL1        0.0111
     23 C          60.5827   96.0315   -4.7404 C.ar    1  UNL1        0.0577
     24 CL         59.6920   96.8555   -5.6222 Cl      1  UNL1       -0.0822
     25 C          61.9439   96.5383   -4.3660 C.ar    1  UNL1        0.0111
     26 C          62.8347   95.7144   -3.4842 C.ar    1  UNL1       -0.0015
     27 C          59.2539   89.8198    6.9657 C.3     1  UNL1        0.0795
     28 C          60.1351   90.4870    7.9798 C.3     1  UNL1        0.0264
     29 C          60.7567   89.6793    9.0804 C.3     1  UNL1        0.0729
     30 N          60.4971   88.2045    9.1669 N.3     1  UNL1       -0.2689
     31 C          59.6159   87.5373    8.1528 C.3     1  UNL1        0.0729
     32 C          58.9943   88.3449    7.0522 C.3     1  UNL1        0.0264
     33 C          61.1187   87.3968   10.2675 C.3     1  UNL1        0.0992
     34 C          61.9653   86.2038    9.9361 C.ar    1  UNL1       -0.0031
     35 C          62.4188   85.9748    8.5248 C.ar    1  UNL1        0.0178
     36 C          63.2654   84.7818    8.1933 C.ar    1  UNL1        0.0986
     37 N          63.6585   83.8177    9.2731 N.ar    1  UNL1       -0.2423
     38 C          63.2050   84.0467   10.6845 C.ar    1  UNL1        0.0986
     39 C          62.3584   85.2398   11.0160 C.ar    1  UNL1        0.0178
@<TRIPOS>BOND
     1     1     2    2
     2     2    27    1
     3    27    28    1
     4    28    29    1
     5    29    30    1
     6    30    33    1
     7    33    34    1
     8    34    35   ar
     9    35    36   ar
    10    36    37   ar
    11    37    38   ar
    12    38    39   ar
    13    30    31    1
    14    31    32    1
    15     2     3   am
    16     3     4    1
    17     4     5    1
    18     5     6    1
    19     6     9    1
    20     9    10   ar
    21    10    11    2
    22    10    12   ar
    23    12    19    1
    24    19    20    1
    25    20    21   ar
    26    21    22   ar
    27    22    23   ar
    28    23    24    1
    29    23    25   ar
    30    25    26   ar
    31    12    13   ar
    32    13    14   ar
    33    14    15   ar
    34    15    16   ar
    35    16    17   ar
    36    17    18   ar
    37     6     7    1
    38     7     8    1
    39    32    27    1
    40     8     3    1
    41    39    34   ar
    42    18     9   ar
    43    26    20   ar
    44    18    13   ar
@<TRIPOS>MOLECULE
*****
 39 44 0 0 0
SMALL
GASTEIGER

@<TRIPOS>ATOM
      1 O          63.5401   93.2468    2.4901 O.2     1  UNL1       -0.2749
      2 C          62.1311   92.8444    2.1699 C.2     1  UNL1        0.2252
      3 N          61.5712   93.0985    0.8017 N.am    1  UNL1       -0.2794
      4 C          62.4203   93.7550   -0.2462 C.3     1  UNL1        0.0953
      5 C          61.8604   94.0091   -1.6144 C.3     1  UNL1        0.0442
      6 C          60.4513   93.6066   -1.9347 C.3     1  UNL1        0.0933
      7 C          59.6023   92.9501   -0.8869 C.3     1  UNL1        0.0442
      8 C          60.1622   92.6960    0.4813 C.3     1  UNL1        0.0953
      9 N          59.8914   93.8607   -3.3029 N.ar    1  UNL1       -0.2817
     10 C          58.5945   93.3294   -3.8375 C.ar    1  UNL1        0.3317
     11 O          57.6298   92.4507   -3.0978 O.2     1  UNL1       -0.2463
     12 N          58.4317   93.8311   -5.2417 N.ar    1  UNL1       -0.2758
     13 C          59.6280   94.6724   -5.5750 C.ar    1  UNL1        0.0800
     14 C          60.0123   95.4243   -6.8147 C.ar    1  UNL1        0.0188
     15 C          61.2988   96.1944   -6.8562 C.ar    1  UNL1        0.0016
     16 C          62.2010   96.2127   -5.6580 C.ar    1  UNL1        0.0016
     17 C          61.8166   95.4609   -4.4182 C.ar    1  UNL1        0.0188
     18 C          60.5301   94.6908   -4.3767 C.ar    1  UNL1        0.0796
     19 C          57.2756   93.5421   -6.1527 C.3     1  UNL1        0.1373
     20 C          56.0277   94.3700   -6.0666 C.ar    1  UNL1        0.0006
     21 C          55.5759   94.9101   -4.7422 C.ar    1  UNL1       -0.0015
     22 C          54.3280   95.7380   -4.6560 C.ar    1  UNL1        0.0111
     23 C          53.5320   96.0258   -5.8943 C.ar    1  UNL1        0.0577
     24 CL         52.2841   96.8536   -5.8082 Cl      1  UNL1       -0.0822
     25 C          53.9838   95.4857   -7.2188 C.ar    1  UNL1        0.0111
     26 C          55.2316   94.6578   -7.3050 C.ar    1  UNL1       -0.0015
     27 C          61.2820   92.1878    3.2177 C.3     1  UNL1        0.0795
     28 C          61.8476   91.0793    4.0551 C.3     1  UNL1        0.0264
     29 C          60.9985   90.4228    5.1029 C.3     1  UNL1        0.0729
     30 N          59.5838   90.8747    5.3133 N.3     1  UNL1       -0.2689
     31 C          59.0181   91.9833    4.4758 C.3     1  UNL1        0.0729
     32 C          59.8672   92.6399    3.4280 C.3     1  UNL1        0.0264
     33 C          58.7346   90.2182    6.3611 C.3     1  UNL1        0.0992
     34 C          59.3336   89.1933    7.2781 C.ar    1  UNL1       -0.0031
     35 C          60.1961   89.6270    8.4261 C.ar    1  UNL1        0.0178
     36 C          60.7951   88.6022    9.3431 C.ar    1  UNL1        0.0986
     37 N          60.5316   87.1437    9.1121 N.ar    1  UNL1       -0.2423
     38 C          59.6691   86.7101    7.9641 C.ar    1  UNL1        0.0986
     39 C          59.0701   87.7349    7.0470 C.ar    1  UNL1        0.0178
@<TRIPOS>BOND
     1     1     2    2
     2     2    27    1
     3    27    28    1
     4    28    29    1
     5    29    30    1
     6    30    33    1
     7    33    34    1
     8    34    35   ar
     9    35    36   ar
    10    36    37   ar
    11    37    38   ar
    12    38    39   ar
    13    30    31    1
    14    31    32    1
    15     2     3   am
    16     3     4    1
    17     4     5    1
    18     5     6    1
    19     6     9    1
    20     9    10   ar
    21    10    11    2
    22    10    12   ar
    23    12    19    1
    24    19    20    1
    25    20    21   ar
    26    21    22   ar
    27    22    23   ar
    28    23    24    1
    29    23    25   ar
    30    25    26   ar
    31    12    13   ar
    32    13    14   ar
    33    14    15   ar
    34    15    16   ar
    35    16    17   ar
    36    17    18   ar
    37     6     7    1
    38     7     8    1
    39    32    27    1
    40     8     3    1
    41    39    34   ar
    42    18     9   ar
    43    26    20   ar
    44    18    13   ar
@<TRIPOS>MOLECULE
*****
 39 44 0 0 0
SMALL
GASTEIGER

@<TRIPOS>ATOM
      1 O          57.0285   90.2336    6.2178 O.2     1  UNL1       -0.2749
      2 C          58.5267   90.2719    6.1562 C.2     1  UNL1        0.2252
      3 N          59.2129   91.0036    5.0409 N.am    1  UNL1       -0.2794
      4 C          58.4009   91.6969    3.9874 C.3     1  UNL1        0.0953
      5 C          59.0871   92.4286    2.8721 C.3     1  UNL1        0.0442
      6 C          60.5854   92.4669    2.8104 C.3     1  UNL1        0.0933
      7 C          61.3973   91.7736    3.8639 C.3     1  UNL1        0.0442
      8 C          60.7111   91.0419    4.9792 C.3     1  UNL1        0.0953
      9 N          61.2716   93.1986    1.6951 N.ar    1  UNL1       -0.2817
     10 C          60.7029   93.4623    0.3324 C.ar    1  UNL1        0.3317
     11 O          59.3482   93.0407   -0.1543 O.2     1  UNL1       -0.2463
     12 N          61.7269   94.2217   -0.4581 N.ar    1  UNL1       -0.2758
     13 C          62.9284   94.4273    0.4161 C.ar    1  UNL1        0.0800
     14 C          64.2423   95.1085    0.1722 C.ar    1  UNL1        0.0188
     15 C          65.2748   95.1575    1.2591 C.ar    1  UNL1        0.0016
     16 C          64.9934   94.5251    2.5899 C.ar    1  UNL1        0.0016
     17 C          63.6795   93.8439    2.8338 C.ar    1  UNL1        0.0188
     18 C          62.6470   93.7949    1.7469 C.ar    1  UNL1        0.0796
     19 C          61.5758   94.6928   -1.8741 C.3     1  UNL1        0.1373
     20 C          62.3702   94.0445   -2.9691 C.ar    1  UNL1        0.0006
     21 C          63.3022   92.9131   -2.6505 C.ar    1  UNL1       -0.0015
     22 C          64.0965   92.2647   -3.7453 C.ar    1  UNL1        0.0111
     23 C          63.9589   92.7478   -5.1587 C.ar    1  UNL1        0.0577
     24 CL         64.7532   92.0995   -6.2535 Cl      1  UNL1       -0.0822
     25 C          63.0270   93.8792   -5.4772 C.ar    1  UNL1        0.0111
     26 C          62.2326   94.5275   -4.3825 C.ar    1  UNL1       -0.0015
     27 C          59.3387   89.5786    7.2097 C.3     1  UNL1        0.0795
     28 C          59.4092   88.0805    7.2373 C.3     1  UNL1        0.0264
     29 C          60.2212   87.3872    8.2908 C.3     1  UNL1        0.0729
     30 N          60.9627   88.1920    9.3168 N.3     1  UNL1       -0.2689
     31 C          60.8922   89.6902    9.2892 C.3     1  UNL1        0.0729
     32 C          60.0802   90.3835    8.2356 C.3     1  UNL1        0.0264
     33 C          61.7747   87.4987   10.3703 C.3     1  UNL1        0.0992
     34 C          62.3899   86.1611   10.0837 C.ar    1  UNL1       -0.0031
     35 C          62.8306   85.8212    8.6908 C.ar    1  UNL1        0.0178
     36 C          63.4458   84.4835    8.4041 C.ar    1  UNL1        0.0986
     37 N          63.6204   83.4858    9.5104 N.ar    1  UNL1       -0.2423
     38 C          63.1798   83.8256   10.9034 C.ar    1  UNL1        0.0986
     39 C          62.5646   85.1633   11.1901 C.ar    1  UNL1        0.0178
@<TRIPOS>BOND
     1     1     2    2
     2     2    27    1
     3    27    28    1
     4    28    29    1
     5    29    30    1
     6    30    33    1
     7    33    34    1
     8    34    35   ar
     9    35    36   ar
    10    36    37   ar
    11    37    38   ar
    12    38    39   ar
    13    30    31    1
    14    31    32    1
    15     2     3   am
    16     3     4    1
    17     4     5    1
    18     5     6    1
    19     6     9    1
    20     9    10   ar
    21    10    11    2
    22    10    12   ar
    23    12    19    1
    24    19    20    1
    25    20    21   ar
    26    21    22   ar
    27    22    23   ar
    28    23    24    1
    29    23    25   ar
    30    25    26   ar
    31    12    13   ar
    32    13    14   ar
    33    14    15   ar
    34    15    16   ar
    35    16    17   ar
    36    17    18   ar
    37     6     7    1
    38     7     8    1
    39    32    27    1
    40     8     3    1
    41    39    34   ar
    42    18     9   ar
    43    26    20   ar
    44    18    13   ar
@<TRIPOS>MOLECULE
*****
 39 44 0 0 0
SMALL
GASTEIGER

@<TRIPOS>ATOM
      1 O          56.8234   90.0304    6.2440 O.2     1  UNL1       -0.2749
      2 C          58.3199   90.1281    6.2710 C.2     1  UNL1        0.2252
      3 N          59.0371   90.9414    5.2346 N.am    1  UNL1       -0.2794
      4 C          58.2578   91.6568    4.1712 C.3     1  UNL1        0.0953
      5 C          58.9751   92.4701    3.1348 C.3     1  UNL1        0.0442
      6 C          60.4717   92.5679    3.1617 C.3     1  UNL1        0.0933
      7 C          61.2509   91.8524    4.2251 C.3     1  UNL1        0.0442
      8 C          60.5337   91.0392    5.2615 C.3     1  UNL1        0.0953
      9 N          61.1889   93.3811    2.1253 N.ar    1  UNL1       -0.2817
     10 C          60.5995   94.5012    1.3202 C.ar    1  UNL1        0.3317
     11 O          59.1894   95.0046    1.4103 O.2     1  UNL1       -0.2463
     12 N          61.6679   95.0293    0.4094 N.ar    1  UNL1       -0.2758
     13 C          62.9175   94.2357    0.6514 C.ar    1  UNL1        0.0800
     14 C          64.2867   94.3091    0.0432 C.ar    1  UNL1        0.0188
     15 C          65.3598   93.3638    0.4955 C.ar    1  UNL1        0.0016
     16 C          65.0638   92.3451    1.5560 C.ar    1  UNL1        0.0016
     17 C          63.6947   92.2717    2.1643 C.ar    1  UNL1        0.0188
     18 C          62.6215   93.2171    1.7120 C.ar    1  UNL1        0.0796
     19 C          61.5136   96.1537   -0.5714 C.3     1  UNL1        0.1373
     20 C          61.4834   95.8662   -2.0434 C.ar    1  UNL1        0.0006
     21 C          60.7597   94.6567   -2.5566 C.ar    1  UNL1       -0.0015
     22 C          60.7294   94.3691   -4.0284 C.ar    1  UNL1        0.0111
     23 C          61.4229   95.2911   -4.9871 C.ar    1  UNL1        0.0577
     24 CL         61.3927   95.0036   -6.4590 Cl      1  UNL1       -0.0822
     25 C          62.1467   96.5005   -4.4739 C.ar    1  UNL1        0.0111
     26 C          62.1769   96.7881   -3.0021 C.ar    1  UNL1       -0.0015
     27 C          59.0992   89.4127    7.3344 C.3     1  UNL1        0.0795
     28 C          59.9512   90.1917    8.2921 C.3     1  UNL1        0.0264
     29 C          60.7305   89.4762    9.3555 C.3     1  UNL1        0.0729
     30 N          60.6579   87.9817    9.4611 N.3     1  UNL1       -0.2689
     31 C          59.8059   87.2026    8.5033 C.3     1  UNL1        0.0729
     32 C          59.0265   87.9181    7.4400 C.3     1  UNL1        0.0264
     33 C          61.4372   87.2662   10.5245 C.3     1  UNL1        0.0992
     34 C          62.2099   86.0269   10.1824 C.ar    1  UNL1       -0.0031
     35 C          62.5515   85.0361   11.2554 C.ar    1  UNL1        0.0178
     36 C          63.3242   83.7968   10.9134 C.ar    1  UNL1        0.0986
     37 N          63.7552   83.5483    9.4984 N.ar    1  UNL1       -0.2423
     38 C          63.4135   84.5391    8.4253 C.ar    1  UNL1        0.0986
     39 C          62.6408   85.7784    8.7673 C.ar    1  UNL1        0.0178
@<TRIPOS>BOND
     1     1     2    2
     2     2    27    1
     3    27    28    1
     4    28    29    1
     5    29    30    1
     6    30    33    1
     7    33    34    1
     8    34    35   ar
     9    35    36   ar
    10    36    37   ar
    11    37    38   ar
    12    38    39   ar
    13    30    31    1
    14    31    32    1
    15     2     3   am
    16     3     4    1
    17     4     5    1
    18     5     6    1
    19     6     9    1
    20     9    10   ar
    21    10    11    2
    22    10    12   ar
    23    12    19    1
    24    19    20    1
    25    20    21   ar
    26    21    22   ar
    27    22    23   ar
    28    23    24    1
    29    23    25   ar
    30    25    26   ar
    31    12    13   ar
    32    13    14   ar
    33    14    15   ar
    34    15    16   ar
    35    16    17   ar
    36    17    18   ar
    37     6     7    1
    38     7     8    1
    39    32    27    1
    40     8     3    1
    41    39    34   ar
    42    18     9   ar
    43    26    20   ar
    44    18    13   ar
