@<TRIPOS>MOLECULE
*****
 35 39 0 0 0
SMALL
GASTEIGER

@<TRIPOS>ATOM
      1 N          62.5040   89.6898   10.6959 N.pl3   1  UNL1       -0.2740
      2 C          63.0702   91.0406   10.3719 C.3     1  UNL1        0.1079
      3 C          64.0084   91.4270   11.4766 C.3     1  UNL1        0.1498
      4 C          64.8521   92.6477   11.6959 C.2     1  UNL1        0.2919
      5 O          64.8385   93.7596   10.6891 O.2     1  UNL1       -0.2563
      6 N          65.7094   92.7565   12.9220 N.am    1  UNL1       -0.1449
      7 C          66.5531   93.9773   13.1413 C.3     1  UNL1        0.2159
      8 C          65.7231   91.6447   13.9287 C.2     1  UNL1        0.3728
      9 N          66.5804   91.7535   15.1548 N.2     1  UNL1       -0.1329
     10 N          64.8794   90.4240   13.7094 N.pl3   1  UNL1       -0.2247
     11 C          64.0221   90.3151   12.4834 C.3     1  UNL1        0.1559
     12 C          63.0923   89.2415   12.0009 C.3     1  UNL1        0.1327
     13 H          67.1342   92.5546   15.2987 H       1  UNL1        0.3058
     14 H          64.8884   89.6942   14.3702 H       1  UNL1        0.2454
     15 C          59.1078   89.5121    6.7673 C.3     1  UNL1        0.0547
     16 C          59.8238   88.8333    7.8971 C.ar    1  UNL1        0.0911
     17 N          60.8059   89.6009    8.7316 N.ar    1  UNL1       -0.2157
     18 C          61.5219   88.9222    9.8615 C.ar    1  UNL1        0.2201
     19 N          61.2559   87.4759   10.1570 N.ar    1  UNL1       -0.2097
     20 C          60.2738   86.7083    9.3225 C.ar    1  UNL1        0.1326
     21 C          59.5577   87.3870    8.1926 C.ar    1  UNL1        0.1727
     22 F          58.5757   86.6194    7.3581 F       1  UNL1       -0.2013
     23 C          63.9330   89.1291   13.3974 C.ar    1  UNL1        0.0397
     24 C          63.7840   87.6982   12.9730 C.ar    1  UNL1        0.0057
     25 C          63.7362   86.8504   14.2096 C.ar    1  UNL1        0.0068
     26 C          63.8556   87.7575   15.3983 C.ar    1  UNL1        0.0352
     27 S          63.9773   89.1658   14.8963 S.2     1  UNL1       -0.0878
     28 C          63.5939   85.3578   14.2503 C.ar    1  UNL1        0.0012
     29 C          63.4561   84.6532   15.5674 C.ar    1  UNL1        0.0001
     30 C          63.3138   83.1605   15.6082 C.ar    1  UNL1        0.0007
     31 C          63.3094   82.3724   14.3319 C.ar    1  UNL1        0.0103
     32 C          63.4473   83.0770   13.0149 C.ar    1  UNL1        0.0684
     33 C          63.5896   84.5697   12.9740 C.ar    1  UNL1        0.0103
     34 C          63.4429   82.2888   11.7386 C.1     1  UNL1        0.1004
     35 N          63.4385   81.5007   10.4623 N.1     1  UNL1       -0.1908
@<TRIPOS>BOND
     1    15    16    1
     2    16    17   ar
     3    17    18   ar
     4    18     1    1
     5     1     2    1
     6     3     2    1
     7     3     4    1
     8     4     5    2
     9     4     6   am
    10     6     7    1
    11     6     8    1
    12     8     9    2
    13     8    10    1
    14    10    11    1
    15    11    23    1
    16    23    24   ar
    17    24    25   ar
    18    25    28    1
    19    28    29   ar
    20    29    30   ar
    21    30    31   ar
    22    31    32   ar
    23    32    34    1
    24    34    35    3
    25    32    33   ar
    26    25    26   ar
    27    26    27   ar
    28    11    12    1
    29    18    19   ar
    30    19    20   ar
    31    20    21   ar
    32    21    22    1
    33    21    16   ar
    34    12     1    1
    35    11     3    1
    36    27    23   ar
    37    33    28   ar
    38     9    13    1
    39    10    14    1
@<TRIPOS>MOLECULE
*****
 35 39 0 0 0
SMALL
GASTEIGER

@<TRIPOS>ATOM
      1 N          62.6580   89.8221   10.6709 N.pl3   1  UNL1       -0.2740
      2 C          63.2475   91.1706   10.3815 C.3     1  UNL1        0.1079
      3 C          64.1400   91.5422   11.5284 C.3     1  UNL1        0.1498
      4 C          64.9824   92.7548   11.7927 C.2     1  UNL1        0.2919
      5 O          65.0204   93.8738   10.7945 O.2     1  UNL1       -0.2563
      6 N          65.7868   92.8485   13.0554 N.am    1  UNL1       -0.1449
      7 C          66.6292   94.0612   13.3197 C.3     1  UNL1        0.2159
      8 C          65.7488   91.7296   14.0536 C.2     1  UNL1        0.3728
      9 N          66.5532   91.8233   15.3163 N.2     1  UNL1       -0.1329
     10 N          64.9064   90.5169   13.7893 N.pl3   1  UNL1       -0.2247
     11 C          64.1020   90.4232   12.5267 C.3     1  UNL1        0.1559
     12 C          63.1861   89.3601   11.9967 C.3     1  UNL1        0.1327
     13 H          67.1061   92.6192   15.4898 H       1  UNL1        0.3058
     14 H          64.8815   89.7826   14.4445 H       1  UNL1        0.2454
     15 C          61.2685   85.4264    8.2736 C.3     1  UNL1        0.0547
     16 C          61.0124   86.8699    8.5907 C.ar    1  UNL1        0.0911
     17 N          61.9632   87.6243    9.4723 N.ar    1  UNL1       -0.2157
     18 C          61.7072   89.0678    9.7894 C.ar    1  UNL1        0.2201
     19 N          60.5005   89.7572    9.2249 N.ar    1  UNL1       -0.2097
     20 C          59.5497   89.0028    8.3433 C.ar    1  UNL1        0.1326
     21 C          59.8057   87.5592    8.0262 C.ar    1  UNL1        0.1727
     22 F          58.8549   86.8050    7.1446 F       1  UNL1       -0.2013
     23 C          63.9649   89.2316   13.4273 C.ar    1  UNL1        0.0397
     24 C          63.7437   87.8148   12.9874 C.ar    1  UNL1        0.0057
     25 C          63.6669   86.9550   14.2142 C.ar    1  UNL1        0.0068
     26 C          63.8407   87.8406   15.4123 C.ar    1  UNL1        0.0352
     27 S          64.0248   89.2476   14.9260 S.2     1  UNL1       -0.0878
     28 C          63.4539   85.4704   14.2385 C.ar    1  UNL1        0.0012
     29 C          63.1425   84.7786   15.5326 C.ar    1  UNL1        0.0001
     30 C          62.9294   83.2940   15.5569 C.ar    1  UNL1        0.0007
     31 C          63.0277   82.5013   14.2873 C.ar    1  UNL1        0.0103
     32 C          63.3391   83.1932   12.9933 C.ar    1  UNL1        0.0684
     33 C          63.5522   84.6777   12.9689 C.ar    1  UNL1        0.0103
     34 C          63.4374   82.4003   11.7237 C.1     1  UNL1        0.1004
     35 N          63.5358   81.6075   10.4542 N.1     1  UNL1       -0.1908
@<TRIPOS>BOND
     1    15    16    1
     2    16    17   ar
     3    17    18   ar
     4    18     1    1
     5     1     2    1
     6     3     2    1
     7     3     4    1
     8     4     5    2
     9     4     6   am
    10     6     7    1
    11     6     8    1
    12     8     9    2
    13     8    10    1
    14    10    11    1
    15    11    23    1
    16    23    24   ar
    17    24    25   ar
    18    25    28    1
    19    28    29   ar
    20    29    30   ar
    21    30    31   ar
    22    31    32   ar
    23    32    34    1
    24    34    35    3
    25    32    33   ar
    26    25    26   ar
    27    26    27   ar
    28    11    12    1
    29    18    19   ar
    30    19    20   ar
    31    20    21   ar
    32    21    22    1
    33    21    16   ar
    34    12     1    1
    35    11     3    1
    36    27    23   ar
    37    33    28   ar
    38     9    13    1
    39    10    14    1
@<TRIPOS>MOLECULE
*****
 35 39 0 0 0
SMALL
GASTEIGER

@<TRIPOS>ATOM
      1 N          63.0756   90.3793   10.7907 N.pl3   1  UNL1       -0.2740
      2 C          63.6981   91.5045   10.0185 C.3     1  UNL1        0.1079
      3 C          64.5229   92.3192   10.9703 C.3     1  UNL1        0.1498
      4 C          65.3621   93.5469   10.7739 C.2     1  UNL1        0.2919
      5 O          65.4749   94.1687    9.4135 O.2     1  UNL1       -0.2563
      6 N          66.0886   94.1528   11.9381 N.am    1  UNL1       -0.1449
      7 C          66.9278   95.3806   11.7417 C.3     1  UNL1        0.2159
      8 C          65.9758   93.5312   13.2984 C.2     1  UNL1        0.3728
      9 N          66.7022   94.1371   14.4626 N.2     1  UNL1       -0.1329
     10 N          65.1366   92.3035   13.4948 N.pl3   1  UNL1       -0.2247
     11 C          64.4102   91.6975   12.3307 C.3     1  UNL1        0.1559
     12 C          63.5157   90.4985   12.2197 C.3     1  UNL1        0.1327
     13 H          67.2530   94.9429   14.3338 H       1  UNL1        0.3058
     14 H          65.0626   91.8954   14.3877 H       1  UNL1        0.2454
     15 C          61.6994   85.3838   10.4016 C.3     1  UNL1        0.0547
     16 C          61.4836   86.8228   10.0374 C.ar    1  UNL1        0.0911
     17 N          62.3875   87.8816   10.5961 N.ar    1  UNL1       -0.2157
     18 C          62.1717   89.3206   10.2320 C.ar    1  UNL1        0.2201
     19 N          61.0520   89.7010    9.3092 N.ar    1  UNL1       -0.2097
     20 C          60.1481   88.6422    8.7505 C.ar    1  UNL1        0.1326
     21 C          60.3639   87.2032    9.1146 C.ar    1  UNL1        0.1727
     22 F          59.4600   86.1445    8.5559 F       1  UNL1       -0.2013
     23 C          64.2036   90.9685   13.6253 C.ar    1  UNL1        0.0397
     24 C          63.9537   89.4975   13.7786 C.ar    1  UNL1        0.0057
     25 C          63.8062   89.2024   15.2419 C.ar    1  UNL1        0.0068
     26 C          63.9650   90.4911   15.9929 C.ar    1  UNL1        0.0352
     27 S          64.2105   91.5826   14.9938 S.2     1  UNL1       -0.0878
     28 C          63.5457   87.8551   15.8478 C.ar    1  UNL1        0.0012
     29 C          62.9441   87.7527   17.2181 C.ar    1  UNL1        0.0001
     30 C          62.6836   86.4055   17.8239 C.ar    1  UNL1        0.0007
     31 C          63.0247   85.1607   17.0596 C.ar    1  UNL1        0.0103
     32 C          63.6263   85.2632   15.6893 C.ar    1  UNL1        0.0684
     33 C          63.8868   86.6104   15.0834 C.ar    1  UNL1        0.0103
     34 C          63.9674   84.0184   14.9250 C.1     1  UNL1        0.1004
     35 N          64.3085   82.7737   14.1606 N.1     1  UNL1       -0.1908
@<TRIPOS>BOND
     1    15    16    1
     2    16    17   ar
     3    17    18   ar
     4    18     1    1
     5     1     2    1
     6     3     2    1
     7     3     4    1
     8     4     5    2
     9     4     6   am
    10     6     7    1
    11     6     8    1
    12     8     9    2
    13     8    10    1
    14    10    11    1
    15    11    23    1
    16    23    24   ar
    17    24    25   ar
    18    25    28    1
    19    28    29   ar
    20    29    30   ar
    21    30    31   ar
    22    31    32   ar
    23    32    34    1
    24    34    35    3
    25    32    33   ar
    26    25    26   ar
    27    26    27   ar
    28    11    12    1
    29    18    19   ar
    30    19    20   ar
    31    20    21   ar
    32    21    22    1
    33    21    16   ar
    34    12     1    1
    35    11     3    1
    36    27    23   ar
    37    33    28   ar
    38     9    13    1
    39    10    14    1
@<TRIPOS>MOLECULE
*****
 35 39 0 0 0
SMALL
GASTEIGER

@<TRIPOS>ATOM
      1 N          64.1645   88.4901   14.2671 N.pl3   1  UNL1       -0.2740
      2 C          65.0832   89.3727   15.0590 C.3     1  UNL1        0.1079
      3 C          65.2729   90.6491   14.2943 C.3     1  UNL1        0.1498
      4 C          66.0719   91.8846   14.5860 C.2     1  UNL1        0.2919
      5 O          66.8734   91.9783   15.8505 O.2     1  UNL1       -0.2563
      6 N          66.0693   93.0265   13.6133 N.am    1  UNL1       -0.1449
      7 C          66.8683   94.2621   13.9050 C.3     1  UNL1        0.2159
      8 C          65.2678   92.9328   12.3489 C.2     1  UNL1        0.3728
      9 N          65.2653   94.0747   11.3761 N.2     1  UNL1       -0.1329
     10 N          64.4688   91.6973   12.0572 N.pl3   1  UNL1       -0.2247
     11 C          64.4713   90.5555   13.0298 C.3     1  UNL1        0.1559
     12 C          63.7863   89.2211   13.0130 C.3     1  UNL1        0.1327
     13 H          65.7897   94.8856   11.5676 H       1  UNL1        0.3058
     14 H          63.9428   91.6359   11.2273 H       1  UNL1        0.2454
     15 C          62.9096   83.6194   12.9630 C.3     1  UNL1        0.0547
     16 C          63.0772   84.6821   14.0082 C.ar    1  UNL1        0.0911
     17 N          63.5370   86.0547   13.6151 N.ar    1  UNL1       -0.2157
     18 C          63.7046   87.1176   14.6602 C.ar    1  UNL1        0.2201
     19 N          63.4124   86.8078   16.0985 N.ar    1  UNL1       -0.2097
     20 C          62.9525   85.4351   16.4915 C.ar    1  UNL1        0.1326
     21 C          62.7849   84.3723   15.4464 C.ar    1  UNL1        0.1727
     22 F          62.3251   82.9997   15.8396 F       1  UNL1       -0.2013
     23 C          63.6262   90.3189   11.8134 C.ar    1  UNL1        0.0397
     24 C          62.9050   89.0480   11.4745 C.ar    1  UNL1        0.0057
     25 C          62.1868   89.2552   10.1740 C.ar    1  UNL1        0.0068
     26 C          62.4641   90.6542    9.7092 C.ar    1  UNL1        0.0352
     27 S          63.3537   91.3115   10.7224 S.2     1  UNL1       -0.0878
     28 C          61.3401   88.2415    9.4631 C.ar    1  UNL1        0.0012
     29 C          59.8470   88.2816    9.6020 C.ar    1  UNL1        0.0001
     30 C          59.0002   87.2679    8.8912 C.ar    1  UNL1        0.0007
     31 C          59.6465   86.2141    8.0415 C.ar    1  UNL1        0.0103
     32 C          61.1395   86.1741    7.9026 C.ar    1  UNL1        0.0684
     33 C          61.9863   87.1878    8.6134 C.ar    1  UNL1        0.0103
     34 C          61.7857   85.1203    7.0529 C.1     1  UNL1        0.1004
     35 N          62.4318   84.0665    6.2031 N.1     1  UNL1       -0.1908
@<TRIPOS>BOND
     1    15    16    1
     2    16    17   ar
     3    17    18   ar
     4    18     1    1
     5     1     2    1
     6     3     2    1
     7     3     4    1
     8     4     5    2
     9     4     6   am
    10     6     7    1
    11     6     8    1
    12     8     9    2
    13     8    10    1
    14    10    11    1
    15    11    23    1
    16    23    24   ar
    17    24    25   ar
    18    25    28    1
    19    28    29   ar
    20    29    30   ar
    21    30    31   ar
    22    31    32   ar
    23    32    34    1
    24    34    35    3
    25    32    33   ar
    26    25    26   ar
    27    26    27   ar
    28    11    12    1
    29    18    19   ar
    30    19    20   ar
    31    20    21   ar
    32    21    22    1
    33    21    16   ar
    34    12     1    1
    35    11     3    1
    36    27    23   ar
    37    33    28   ar
    38     9    13    1
    39    10    14    1
@<TRIPOS>MOLECULE
*****
 35 39 0 0 0
SMALL
GASTEIGER

@<TRIPOS>ATOM
      1 N          63.2540   89.9303   12.6081 N.pl3   1  UNL1       -0.2740
      2 C          62.4825   90.5633   11.4883 C.3     1  UNL1        0.1079
      3 C          61.8410   89.4675   10.6899 C.3     1  UNL1        0.1498
      4 C          60.9639   89.4935    9.4734 C.2     1  UNL1        0.2919
      5 O          60.5888   90.8038    8.8469 O.2     1  UNL1       -0.2563
      6 N          60.4617   88.2091    8.8833 N.am    1  UNL1       -0.1449
      7 C          59.5845   88.2351    7.6667 C.3     1  UNL1        0.2159
      8 C          60.8367   86.8988    9.5096 C.2     1  UNL1        0.3728
      9 N          60.3345   85.6143    8.9195 N.2     1  UNL1       -0.1329
     10 N          61.7138   86.8727   10.7261 N.pl3   1  UNL1       -0.2247
     11 C          62.2160   88.1571   11.3162 C.3     1  UNL1        0.1559
     12 C          63.0893   88.4431   12.5018 C.3     1  UNL1        0.1327
     13 H          59.7588   85.6314    8.1211 H       1  UNL1        0.3058
     14 H          61.9599   86.0127   11.1372 H       1  UNL1        0.2454
     15 C          67.6355   92.3035   14.0811 C.3     1  UNL1        0.0547
     16 C          66.2412   91.8434   14.3877 C.ar    1  UNL1        0.0911
     17 N          65.4447   91.1169   13.3447 N.ar    1  UNL1       -0.2157
     18 C          64.0504   90.6567   13.6512 C.ar    1  UNL1        0.2201
     19 N          63.4524   90.9231   15.0008 N.ar    1  UNL1       -0.2097
     20 C          64.2488   91.6496   16.0439 C.ar    1  UNL1        0.1326
     21 C          65.6432   92.1097   15.7373 C.ar    1  UNL1        0.1727
     22 F          66.4396   92.8362   16.7804 F       1  UNL1       -0.2013
     23 C          62.6722   86.9299   12.0482 C.ar    1  UNL1        0.0397
     24 C          62.1881   85.5303   11.8101 C.ar    1  UNL1        0.0057
     25 C          62.9093   84.6221   12.7615 C.ar    1  UNL1        0.0068
     26 C          63.8391   85.4605   13.5877 C.ar    1  UNL1        0.0352
     27 S          63.6925   86.8867   13.1468 S.2     1  UNL1       -0.0878
     28 C          62.7318   83.1365   12.8681 C.ar    1  UNL1        0.0012
     29 C          62.3829   82.5156   14.1883 C.ar    1  UNL1        0.0001
     30 C          62.2054   81.0300   14.2949 C.ar    1  UNL1        0.0007
     31 C          62.3768   80.1652   13.0813 C.ar    1  UNL1        0.0103
     32 C          62.7257   80.7861   11.7611 C.ar    1  UNL1        0.0684
     33 C          62.9032   82.2717   11.6545 C.ar    1  UNL1        0.0103
     34 C          62.8971   79.9212   10.5476 C.1     1  UNL1        0.1004
     35 N          63.0685   79.0563    9.3341 N.1     1  UNL1       -0.1908
@<TRIPOS>BOND
     1    15    16    1
     2    16    17   ar
     3    17    18   ar
     4    18     1    1
     5     1     2    1
     6     3     2    1
     7     3     4    1
     8     4     5    2
     9     4     6   am
    10     6     7    1
    11     6     8    1
    12     8     9    2
    13     8    10    1
    14    10    11    1
    15    11    23    1
    16    23    24   ar
    17    24    25   ar
    18    25    28    1
    19    28    29   ar
    20    29    30   ar
    21    30    31   ar
    22    31    32   ar
    23    32    34    1
    24    34    35    3
    25    32    33   ar
    26    25    26   ar
    27    26    27   ar
    28    11    12    1
    29    18    19   ar
    30    19    20   ar
    31    20    21   ar
    32    21    22    1
    33    21    16   ar
    34    12     1    1
    35    11     3    1
    36    27    23   ar
    37    33    28   ar
    38     9    13    1
    39    10    14    1
@<TRIPOS>MOLECULE
*****
 35 39 0 0 0
SMALL
GASTEIGER

@<TRIPOS>ATOM
      1 N          63.6991   90.0735   12.8647 N.pl3   1  UNL1       -0.2740
      2 C          62.9553   90.6525   11.6978 C.3     1  UNL1        0.1079
      3 C          62.2788   89.5260   10.9744 C.3     1  UNL1        0.1498
      4 C          61.4084   89.4966    9.7531 C.2     1  UNL1        0.2919
      5 O          61.0827   90.7717    9.0333 O.2     1  UNL1       -0.2563
      6 N          60.8635   88.1920    9.2517 N.am    1  UNL1       -0.1449
      7 C          59.9930   88.1626    8.0304 C.3     1  UNL1        0.2159
      8 C          61.1891   86.9170    9.9715 C.2     1  UNL1        0.3728
      9 N          60.6443   85.6125    9.4701 N.2     1  UNL1       -0.1329
     10 N          62.0596   86.9464   11.1927 N.pl3   1  UNL1       -0.2247
     11 C          62.6045   88.2509   11.6941 C.3     1  UNL1        0.1559
     12 C          63.4822   88.5893   12.8625 C.3     1  UNL1        0.1327
     13 H          60.0729   85.5931    8.6686 H       1  UNL1        0.3058
     14 H          62.2733   86.1095   11.6651 H       1  UNL1        0.2454
     15 C          68.1971   92.2745   14.2516 C.3     1  UNL1        0.0547
     16 C          66.7653   91.9442   14.5527 C.ar    1  UNL1        0.0911
     17 N          65.9481   91.1740   13.5582 N.ar    1  UNL1       -0.2157
     18 C          64.5162   90.8436   13.8593 C.ar    1  UNL1        0.2201
     19 N          63.9016   91.2834   15.1550 N.ar    1  UNL1       -0.2097
     20 C          64.7188   92.0535   16.1495 C.ar    1  UNL1        0.1326
     21 C          66.1507   92.3839   15.8484 C.ar    1  UNL1        0.1727
     22 F          66.9678   93.1540   16.8430 F       1  UNL1       -0.2013
     23 C          63.0137   87.0633   12.5139 C.ar    1  UNL1        0.0397
     24 C          62.6161   85.6390   12.2624 C.ar    1  UNL1        0.0057
     25 C          63.2491   84.7869   13.3222 C.ar    1  UNL1        0.0068
     26 C          64.0379   85.6845   14.2288 C.ar    1  UNL1        0.0352
     27 S          63.8925   87.0914   13.7293 S.2     1  UNL1       -0.0878
     28 C          63.1165   83.2985   13.4526 C.ar    1  UNL1        0.0012
     29 C          64.3171   82.4192   13.2639 C.ar    1  UNL1        0.0001
     30 C          64.1846   80.9308   13.3942 C.ar    1  UNL1        0.0007
     31 C          62.8514   80.3216   13.7132 C.ar    1  UNL1        0.0103
     32 C          61.6509   81.2009   13.9019 C.ar    1  UNL1        0.0684
     33 C          61.7834   82.6893   13.7716 C.ar    1  UNL1        0.0103
     34 C          60.3178   80.5916   14.2209 C.1     1  UNL1        0.1004
     35 N          58.9847   79.9825   14.5398 N.1     1  UNL1       -0.1908
@<TRIPOS>BOND
     1    15    16    1
     2    16    17   ar
     3    17    18   ar
     4    18     1    1
     5     1     2    1
     6     3     2    1
     7     3     4    1
     8     4     5    2
     9     4     6   am
    10     6     7    1
    11     6     8    1
    12     8     9    2
    13     8    10    1
    14    10    11    1
    15    11    23    1
    16    23    24   ar
    17    24    25   ar
    18    25    28    1
    19    28    29   ar
    20    29    30   ar
    21    30    31   ar
    22    31    32   ar
    23    32    34    1
    24    34    35    3
    25    32    33   ar
    26    25    26   ar
    27    26    27   ar
    28    11    12    1
    29    18    19   ar
    30    19    20   ar
    31    20    21   ar
    32    21    22    1
    33    21    16   ar
    34    12     1    1
    35    11     3    1
    36    27    23   ar
    37    33    28   ar
    38     9    13    1
    39    10    14    1
@<TRIPOS>MOLECULE
*****
 35 39 0 0 0
SMALL
GASTEIGER

@<TRIPOS>ATOM
      1 N          62.6407   89.0911   11.3328 N.pl3   1  UNL1       -0.2740
      2 C          61.6475   89.8852   10.5373 C.3     1  UNL1        0.1079
      3 C          60.9638   88.9506    9.5840 C.3     1  UNL1        0.1498
      4 C          59.8953   89.1714    8.5547 C.2     1  UNL1        0.2919
      5 O          59.3246   90.5433    8.3483 O.2     1  UNL1       -0.2563
      6 N          59.3974   88.0204    7.7316 N.am    1  UNL1       -0.1449
      7 C          58.3288   88.2413    6.7022 C.3     1  UNL1        0.2159
      8 C          59.9680   86.6487    7.9379 C.2     1  UNL1        0.3728
      9 N          59.4701   85.4976    7.1149 N.2     1  UNL1       -0.1329
     10 N          61.0365   86.4278    8.9672 N.pl3   1  UNL1       -0.2247
     11 C          61.5344   87.5788    9.7903 C.3     1  UNL1        0.1559
     12 C          62.5708   87.6656   10.8711 C.3     1  UNL1        0.1327
     13 H          58.7688   85.6425    6.4393 H       1  UNL1        0.3058
     14 H          61.4110   85.5274    9.1026 H       1  UNL1        0.2454
     15 C          65.8334   92.7983   13.0831 C.3     1  UNL1        0.0547
     16 C          65.1415   91.4817   13.2774 C.ar    1  UNL1        0.0911
     17 N          64.2370   90.9446   12.2080 N.ar    1  UNL1       -0.2157
     18 C          63.5451   89.6280   12.4023 C.ar    1  UNL1        0.2201
     19 N          63.7576   88.8484   13.6660 N.ar    1  UNL1       -0.2097
     20 C          64.6620   89.3855   14.7354 C.ar    1  UNL1        0.1326
     21 C          65.3539   90.7021   14.5412 C.ar    1  UNL1        0.1727
     22 F          66.2583   91.2391   15.6106 F       1  UNL1       -0.2013
     23 C          62.1964   86.2706   10.1072 C.ar    1  UNL1        0.0397
     24 C          61.9558   85.4339   11.3286 C.ar    1  UNL1        0.0057
     25 C          62.8259   84.2156   11.2347 C.ar    1  UNL1        0.0068
     26 C          63.6043   84.2995    9.9553 C.ar    1  UNL1        0.0352
     27 S          63.2152   85.5696    9.2584 S.2     1  UNL1       -0.0878
     28 C          62.9040   83.1080   12.2432 C.ar    1  UNL1        0.0012
     29 C          64.2319   82.7036   12.8118 C.ar    1  UNL1        0.0001
     30 C          64.3099   81.5960   13.8203 C.ar    1  UNL1        0.0007
     31 C          63.0601   80.8928   14.2602 C.ar    1  UNL1        0.0103
     32 C          61.7323   81.2972   13.6917 C.ar    1  UNL1        0.0684
     33 C          61.6542   82.4048   12.6832 C.ar    1  UNL1        0.0103
     34 C          60.4825   80.5940   14.1317 C.1     1  UNL1        0.1004
     35 N          59.2328   79.8907   14.5716 N.1     1  UNL1       -0.1908
@<TRIPOS>BOND
     1    15    16    1
     2    16    17   ar
     3    17    18   ar
     4    18     1    1
     5     1     2    1
     6     3     2    1
     7     3     4    1
     8     4     5    2
     9     4     6   am
    10     6     7    1
    11     6     8    1
    12     8     9    2
    13     8    10    1
    14    10    11    1
    15    11    23    1
    16    23    24   ar
    17    24    25   ar
    18    25    28    1
    19    28    29   ar
    20    29    30   ar
    21    30    31   ar
    22    31    32   ar
    23    32    34    1
    24    34    35    3
    25    32    33   ar
    26    25    26   ar
    27    26    27   ar
    28    11    12    1
    29    18    19   ar
    30    19    20   ar
    31    20    21   ar
    32    21    22    1
    33    21    16   ar
    34    12     1    1
    35    11     3    1
    36    27    23   ar
    37    33    28   ar
    38     9    13    1
    39    10    14    1
@<TRIPOS>MOLECULE
*****
 35 39 0 0 0
SMALL
GASTEIGER

@<TRIPOS>ATOM
      1 N          62.9709   84.0449   14.4486 N.pl3   1  UNL1       -0.2740
      2 C          62.9565   82.6150   14.9013 C.3     1  UNL1        0.1079
      3 C          62.8846   81.7437   13.6824 C.3     1  UNL1        0.1498
      4 C          62.8426   80.2537   13.5148 C.2     1  UNL1        0.2919
      5 O          62.8726   79.3621   14.7208 O.2     1  UNL1       -0.2563
      6 N          62.7707   79.6552   12.1412 N.am    1  UNL1       -0.1449
      7 C          62.7287   78.1651   11.9736 C.3     1  UNL1        0.2159
      8 C          62.7407   80.5466   10.9353 C.2     1  UNL1        0.3728
      9 N          62.6687   79.9481    9.5617 N.2     1  UNL1       -0.1329
     10 N          62.7827   82.0366   11.1029 N.pl3   1  UNL1       -0.2247
     11 C          62.8546   82.6352   12.4764 C.3     1  UNL1        0.1559
     12 C          62.9079   84.0574   12.9499 C.3     1  UNL1        0.1327
     13 H          62.6412   78.9702    9.4517 H       1  UNL1        0.3058
     14 H          62.7630   82.6217   10.3114 H       1  UNL1        0.2454
     15 C          64.3130   89.0064   15.2116 C.3     1  UNL1        0.0547
     16 C          63.7077   87.7316   15.7198 C.ar    1  UNL1        0.0911
     17 N          63.6419   86.5257   14.8302 N.ar    1  UNL1       -0.2157
     18 C          63.0366   85.2508   15.3383 C.ar    1  UNL1        0.2201
     19 N          62.4971   85.1817   16.7362 N.ar    1  UNL1       -0.2097
     20 C          62.5630   86.3876   17.6259 C.ar    1  UNL1        0.1326
     21 C          63.1682   87.6625   17.1178 C.ar    1  UNL1        0.1727
     22 F          63.2340   88.8684   18.0075 F       1  UNL1       -0.2013
     23 C          62.8317   83.6478   11.3701 C.ar    1  UNL1        0.0397
     24 C          62.1030   84.9587   11.3897 C.ar    1  UNL1        0.0057
     25 C          62.3543   85.6485   10.0816 C.ar    1  UNL1        0.0068
     26 C          63.2384   84.7638    9.2535 C.ar    1  UNL1        0.0352
     27 S          63.5334   83.5273   10.0498 S.2     1  UNL1       -0.0878
     28 C          61.8161   86.9878    9.6734 C.ar    1  UNL1        0.0012
     29 C          60.5396   87.0761    8.8905 C.ar    1  UNL1        0.0001
     30 C          60.0014   88.4153    8.4823 C.ar    1  UNL1        0.0007
     31 C          60.7396   89.6662    8.8568 C.ar    1  UNL1        0.0103
     32 C          62.0161   89.5779    9.6396 C.ar    1  UNL1        0.0684
     33 C          62.5544   88.2387   10.0479 C.ar    1  UNL1        0.0103
     34 C          62.7543   90.8288   10.0141 C.1     1  UNL1        0.1004
     35 N          63.4925   92.0797   10.3887 N.1     1  UNL1       -0.1908
@<TRIPOS>BOND
     1    15    16    1
     2    16    17   ar
     3    17    18   ar
     4    18     1    1
     5     1     2    1
     6     3     2    1
     7     3     4    1
     8     4     5    2
     9     4     6   am
    10     6     7    1
    11     6     8    1
    12     8     9    2
    13     8    10    1
    14    10    11    1
    15    11    23    1
    16    23    24   ar
    17    24    25   ar
    18    25    28    1
    19    28    29   ar
    20    29    30   ar
    21    30    31   ar
    22    31    32   ar
    23    32    34    1
    24    34    35    3
    25    32    33   ar
    26    25    26   ar
    27    26    27   ar
    28    11    12    1
    29    18    19   ar
    30    19    20   ar
    31    20    21   ar
    32    21    22    1
    33    21    16   ar
    34    12     1    1
    35    11     3    1
    36    27    23   ar
    37    33    28   ar
    38     9    13    1
    39    10    14    1
@<TRIPOS>MOLECULE
*****
 35 39 0 0 0
SMALL
GASTEIGER

@<TRIPOS>ATOM
      1 N          60.7205   94.4321   -3.5806 N.pl3   1  UNL1       -0.2740
      2 C          61.8236   94.8504   -4.5070 C.3     1  UNL1        0.1079
      3 C          62.9663   95.3477   -3.6723 C.3     1  UNL1        0.1498
      4 C          64.3170   95.8873   -4.0393 C.2     1  UNL1        0.2919
      5 O          64.7138   95.9983   -5.4816 O.2     1  UNL1       -0.2563
      6 N          65.2708   96.3158   -2.9638 N.am    1  UNL1       -0.1449
      7 C          66.6215   96.8554   -3.3307 C.3     1  UNL1        0.2159
      8 C          64.8741   96.2048   -1.5216 C.2     1  UNL1        0.3728
      9 N          65.8279   96.6334   -0.4461 N.2     1  UNL1       -0.1329
     10 N          63.5234   95.6653   -1.1546 N.pl3   1  UNL1       -0.2247
     11 C          62.5696   95.2367   -2.2300 C.3     1  UNL1        0.1559
     12 C          61.1816   94.6708   -2.1733 C.3     1  UNL1        0.1327
     13 H          66.7144   96.9875   -0.6869 H       1  UNL1        0.3058
     14 H          63.2630   95.5924   -0.2080 H       1  UNL1        0.2454
     15 C          56.3666   91.8545   -2.3977 C.3     1  UNL1        0.0547
     16 C          57.2130   92.5843   -3.3981 C.ar    1  UNL1        0.0911
     17 N          58.5435   93.1433   -2.9892 N.ar    1  UNL1       -0.2157
     18 C          59.3900   93.8732   -3.9896 C.ar    1  UNL1        0.2201
     19 N          58.9059   94.0441   -5.3990 N.ar    1  UNL1       -0.2097
     20 C          57.5754   93.4851   -5.8079 C.ar    1  UNL1        0.1326
     21 C          56.7289   92.7552   -4.8076 C.ar    1  UNL1        0.1727
     22 F          55.3984   92.1963   -5.2166 F       1  UNL1       -0.2013
     23 C          62.0359   95.0679   -0.8384 C.ar    1  UNL1        0.0397
     24 C          62.0128   93.7909   -0.0518 C.ar    1  UNL1        0.0057
     25 C          61.3942   94.0802    1.2838 C.ar    1  UNL1        0.0068
     26 C          61.0350   95.5360    1.3226 C.ar    1  UNL1        0.0352
     27 S          61.4316   96.1465    0.0111 S.2     1  UNL1       -0.0878
     28 C          61.1736   93.0879    2.3868 C.ar    1  UNL1        0.0012
     29 C          62.3248   92.2821    2.9119 C.ar    1  UNL1        0.0001
     30 C          62.1042   91.2898    4.0150 C.ar    1  UNL1        0.0007
     31 C          60.7325   91.1033    4.5928 C.ar    1  UNL1        0.0103
     32 C          59.5815   91.9091    4.0676 C.ar    1  UNL1        0.0684
     33 C          59.8020   92.9014    2.9646 C.ar    1  UNL1        0.0103
     34 C          58.2099   91.7225    4.6455 C.1     1  UNL1        0.1004
     35 N          56.8383   91.5358    5.2235 N.1     1  UNL1       -0.1908
@<TRIPOS>BOND
     1    15    16    1
     2    16    17   ar
     3    17    18   ar
     4    18     1    1
     5     1     2    1
     6     3     2    1
     7     3     4    1
     8     4     5    2
     9     4     6   am
    10     6     7    1
    11     6     8    1
    12     8     9    2
    13     8    10    1
    14    10    11    1
    15    11    23    1
    16    23    24   ar
    17    24    25   ar
    18    25    28    1
    19    28    29   ar
    20    29    30   ar
    21    30    31   ar
    22    31    32   ar
    23    32    34    1
    24    34    35    3
    25    32    33   ar
    26    25    26   ar
    27    26    27   ar
    28    11    12    1
    29    18    19   ar
    30    19    20   ar
    31    20    21   ar
    32    21    22    1
    33    21    16   ar
    34    12     1    1
    35    11     3    1
    36    27    23   ar
    37    33    28   ar
    38     9    13    1
    39    10    14    1
