@<TRIPOS>MOLECULE
*****
 36 40 0 0 0
SMALL
GASTEIGER

@<TRIPOS>ATOM
      1 O          60.5166   80.6826   14.9390 O.2     1  UNL1       -0.2449
      2 C          61.4914   81.4532   14.0988 C.2     1  UNL1        0.3412
      3 O          62.0180   81.0397   12.7564 O.3     1  UNL1       -0.4479
      4 C          62.9628   82.1035   12.2814 C.3     1  UNL1        0.1658
      5 C          62.8039   80.9579   11.3263 C.3     1  UNL1        0.0620
      6 C          63.5588   80.9518   10.0302 C.3     1  UNL1        0.0726
      7 N          64.4726   82.0914    9.6891 N.3     1  UNL1       -0.2968
      8 C          64.6315   83.2370   10.6442 C.3     1  UNL1        0.0816
      9 C          63.8766   83.2431   11.9404 C.3     1  UNL1        0.1329
     10 C          63.0201   83.1745   13.3302 C.ar    1  UNL1        0.0228
     11 C          63.7829   84.4638   13.4074 C.ar    1  UNL1        0.0312
     12 C          63.6363   85.3511   14.6079 C.ar    1  UNL1        0.1672
     13 F          64.3991   86.6403   14.6852 F       1  UNL1       -0.2018
     14 C          62.7269   84.9491   15.7311 C.ar    1  UNL1        0.1676
     15 F          62.5804   85.8365   16.9316 F       1  UNL1       -0.2018
     16 C          61.9642   83.6599   15.6538 C.ar    1  UNL1        0.0382
     17 C          62.1108   82.7726   14.4533 C.ar    1  UNL1        0.0773
     18 H          64.1368   82.4852    8.8102 H       1  UNL1        0.1233
     19 C          64.0355   84.3887   12.8955 C.2     1  UNL1        0.2305
     20 O          64.8807   84.2290   14.1244 O.2     1  UNL1       -0.2747
     21 N          63.3492   85.6941   12.6218 N.am    1  UNL1       -0.2769
     22 C          62.5040   85.8538   11.3929 C.3     1  UNL1        0.0758
     23 C          62.3829   85.9216    9.8993 C.3     1  UNL1        0.0215
     24 C          61.1611   86.0627   10.7579 C.3     1  UNL1        0.0215
     25 C          63.5081   86.8397   13.5769 C.3     1  UNL1        0.1209
     26 C          63.5080   88.2493   13.0640 C.ar    1  UNL1        0.0082
     27 C          62.7580   88.5915   11.8109 C.ar    1  UNL1       -0.0018
     28 C          62.7580   90.0011   11.2980 C.ar    1  UNL1       -0.0003
     29 C          63.5080   91.0685   12.0382 C.ar    1  UNL1        0.0047
     30 C          64.2581   90.7264   13.2914 C.ar    1  UNL1        0.0817
     31 C          64.2581   89.3168   13.8043 C.ar    1  UNL1        0.0592
     32 CL         65.0082   88.9747   15.0574 Cl      1  UNL1       -0.0826
     33 C          65.0081   91.7938   14.0316 C.3     1  UNL1        0.4194
     34 F          65.7581   92.8613   14.7719 F       1  UNL1       -0.1658
     35 F          65.9475   91.9385   12.8712 F       1  UNL1       -0.1658
     36 F          64.0688   91.6491   15.1921 F       1  UNL1       -0.1658
@<TRIPOS>BOND
     1     1     2    2
     2     2     3    1
     3     3     4    1
     4     4     5    1
     5     5     6    1
     6     6     7    1
     7     7     8    1
     8     8     9    1
     9     9    19    1
    10    19    20    2
    11    19    21   am
    12    21    25    1
    13    25    26    1
    14    26    27   ar
    15    27    28   ar
    16    28    29   ar
    17    29    30   ar
    18    30    33    1
    19    33    34    1
    20    33    35    1
    21    33    36    1
    22    30    31   ar
    23    31    32    1
    24    21    22    1
    25    22    23    1
    26    23    24    1
    27     4    10    1
    28    10    11   ar
    29    11    12   ar
    30    12    13    1
    31    12    14   ar
    32    14    15    1
    33    14    16   ar
    34    16    17   ar
    35    17     2    1
    36     9     4    1
    37    31    26   ar
    38    24    22    1
    39    17    10   ar
    40     7    18    1
@<TRIPOS>MOLECULE
*****
 36 40 0 0 0
SMALL
GASTEIGER

@<TRIPOS>ATOM
      1 O          63.0494   91.8396   10.1357 O.2     1  UNL1       -0.2449
      2 C          62.2935   90.5549    9.9676 C.2     1  UNL1        0.3412
      3 O          61.2528   90.2742    8.9243 O.3     1  UNL1       -0.4479
      4 C          60.7617   88.8712    9.1253 C.3     1  UNL1        0.1658
      5 C          60.1077   89.5886    7.9819 C.3     1  UNL1        0.0620
      6 C          59.0629   88.8940    7.1598 C.3     1  UNL1        0.0726
      7 N          58.6722   87.4819    7.4811 N.3     1  UNL1       -0.2968
      8 C          59.3262   86.7644    8.6245 C.3     1  UNL1        0.0816
      9 C          60.3710   87.4590    9.4466 C.3     1  UNL1        0.1329
     10 C          61.4988   88.2848   10.2927 C.ar    1  UNL1        0.0228
     11 C          61.4303   86.9377   10.9490 C.ar    1  UNL1        0.0312
     12 C          62.3084   86.6312   12.1258 C.ar    1  UNL1        0.1672
     13 F          62.2399   85.2842   12.7820 F       1  UNL1       -0.2018
     14 C          63.2551   87.6718   12.6464 C.ar    1  UNL1        0.1676
     15 F          64.1332   87.3653   13.8232 F       1  UNL1       -0.2018
     16 C          63.3236   89.0188   11.9901 C.ar    1  UNL1        0.0382
     17 C          62.4455   89.3253   10.8133 C.ar    1  UNL1        0.0773
     18 H          58.8536   86.9284    6.6437 H       1  UNL1        0.1233
     19 C          61.0250   86.7416   10.5901 C.2     1  UNL1        0.2305
     20 O          60.6203   87.0525   12.0005 O.2     1  UNL1       -0.2747
     21 N          62.0838   85.7132   10.3230 N.am    1  UNL1       -0.2769
     22 C          62.4885   85.4022    8.9124 C.3     1  UNL1        0.0758
     23 C          63.5443   85.3328    7.8492 C.3     1  UNL1        0.0215
     24 C          62.1337   84.9330    7.5326 C.3     1  UNL1        0.0215
     25 C          62.7379   84.9957   11.4664 C.3     1  UNL1        0.1209
     26 C          62.9468   83.5118   11.3997 C.ar    1  UNL1        0.0082
     27 C          63.4244   82.8781   10.1268 C.ar    1  UNL1       -0.0018
     28 C          63.6333   81.3942   10.0601 C.ar    1  UNL1       -0.0003
     29 C          63.3646   80.5440   11.2663 C.ar    1  UNL1        0.0047
     30 C          62.8869   81.1777   12.5393 C.ar    1  UNL1        0.0817
     31 C          62.6780   82.6616   12.6060 C.ar    1  UNL1        0.0592
     32 CL         62.2004   83.2953   13.8788 Cl      1  UNL1       -0.0826
     33 C          62.6182   80.3275   13.7455 C.3     1  UNL1        0.4194
     34 F          62.3495   79.4774   14.9516 F       1  UNL1       -0.1658
     35 F          61.1666   80.2593   13.3739 F       1  UNL1       -0.1658
     36 F          64.0698   80.3958   14.1170 F       1  UNL1       -0.1658
@<TRIPOS>BOND
     1     1     2    2
     2     2     3    1
     3     3     4    1
     4     4     5    1
     5     5     6    1
     6     6     7    1
     7     7     8    1
     8     8     9    1
     9     9    19    1
    10    19    20    2
    11    19    21   am
    12    21    25    1
    13    25    26    1
    14    26    27   ar
    15    27    28   ar
    16    28    29   ar
    17    29    30   ar
    18    30    33    1
    19    33    34    1
    20    33    35    1
    21    33    36    1
    22    30    31   ar
    23    31    32    1
    24    21    22    1
    25    22    23    1
    26    23    24    1
    27     4    10    1
    28    10    11   ar
    29    11    12   ar
    30    12    13    1
    31    12    14   ar
    32    14    15    1
    33    14    16   ar
    34    16    17   ar
    35    17     2    1
    36     9     4    1
    37    31    26   ar
    38    24    22    1
    39    17    10   ar
    40     7    18    1
@<TRIPOS>MOLECULE
*****
 36 40 0 0 0
SMALL
GASTEIGER

@<TRIPOS>ATOM
      1 O          62.4069   86.5340   18.7042 O.2     1  UNL1       -0.2449
      2 C          62.8389   87.1409   17.4023 C.2     1  UNL1        0.3412
      3 O          63.2339   88.5715   17.1844 O.3     1  UNL1       -0.4479
      4 C          63.5908   88.7385   15.7371 C.3     1  UNL1        0.1658
      5 C          63.7192   89.9951   16.5460 C.3     1  UNL1        0.0620
      6 C          64.1712   91.2663   15.8904 C.3     1  UNL1        0.0726
      7 N          64.4948   91.2808   14.4258 N.3     1  UNL1       -0.2968
      8 C          64.3665   90.0242   13.6168 C.3     1  UNL1        0.0816
      9 C          63.9145   88.7531   14.2725 C.3     1  UNL1        0.1329
     10 C          63.4164   87.4111   15.0605 C.ar    1  UNL1        0.0228
     11 C          63.6207   86.9740   13.6402 C.ar    1  UNL1        0.0312
     12 C          63.3602   85.5495   13.2490 C.ar    1  UNL1        0.1672
     13 F          63.5645   85.1124   11.8288 F       1  UNL1       -0.2018
     14 C          62.8955   84.5622   14.2783 C.ar    1  UNL1        0.1676
     15 F          62.6350   83.1377   13.8871 F       1  UNL1       -0.2018
     16 C          62.6912   84.9993   15.6985 C.ar    1  UNL1        0.0382
     17 C          62.9516   86.4238   16.0896 C.ar    1  UNL1        0.0773
     18 H          65.4639   91.5876   14.3415 H       1  UNL1        0.1233
     19 C          63.7862   87.4964   13.4635 C.2     1  UNL1        0.2305
     20 O          64.5061   86.2521   13.8915 O.2     1  UNL1       -0.2747
     21 N          62.9378   87.4842   12.2265 N.am    1  UNL1       -0.2769
     22 C          62.2179   88.7286   11.7984 C.3     1  UNL1        0.0758
     23 C          61.0993   89.7108   11.9830 C.3     1  UNL1        0.0215
     24 C          62.0894   89.9017   10.8725 C.3     1  UNL1        0.0215
     25 C          62.8094   86.2276   11.4175 C.3     1  UNL1        0.1209
     26 C          61.9320   86.2050   10.2011 C.ar    1  UNL1        0.0082
     27 C          60.6169   86.9262   10.2115 C.ar    1  UNL1       -0.0018
     28 C          59.7394   86.9037    8.9951 C.ar    1  UNL1       -0.0003
     29 C          60.1772   86.1600    7.7683 C.ar    1  UNL1        0.0047
     30 C          61.4925   85.4387    7.7578 C.ar    1  UNL1        0.0817
     31 C          62.3699   85.4613    8.9742 C.ar    1  UNL1        0.0592
     32 CL         63.6850   84.7401    8.9638 Cl      1  UNL1       -0.0826
     33 C          61.9302   84.6950    6.5310 C.3     1  UNL1        0.4194
     34 F          62.3680   83.9513    5.3041 F       1  UNL1       -0.1658
     35 F          63.3231   85.2226    6.7082 F       1  UNL1       -0.1658
     36 F          60.5373   84.1674    6.3538 F       1  UNL1       -0.1658
@<TRIPOS>BOND
     1     1     2    2
     2     2     3    1
     3     3     4    1
     4     4     5    1
     5     5     6    1
     6     6     7    1
     7     7     8    1
     8     8     9    1
     9     9    19    1
    10    19    20    2
    11    19    21   am
    12    21    25    1
    13    25    26    1
    14    26    27   ar
    15    27    28   ar
    16    28    29   ar
    17    29    30   ar
    18    30    33    1
    19    33    34    1
    20    33    35    1
    21    33    36    1
    22    30    31   ar
    23    31    32    1
    24    21    22    1
    25    22    23    1
    26    23    24    1
    27     4    10    1
    28    10    11   ar
    29    11    12   ar
    30    12    13    1
    31    12    14   ar
    32    14    15    1
    33    14    16   ar
    34    16    17   ar
    35    17     2    1
    36     9     4    1
    37    31    26   ar
    38    24    22    1
    39    17    10   ar
    40     7    18    1
@<TRIPOS>MOLECULE
*****
 36 40 0 0 0
SMALL
GASTEIGER

@<TRIPOS>ATOM
      1 O          64.2424   91.3313    2.7472 O.2     1  UNL1       -0.2449
      2 C          63.8204   92.5458    1.9746 C.2     1  UNL1        0.3412
      3 O          64.7322   93.4888    1.2469 O.3     1  UNL1       -0.4479
      4 C          63.8878   94.5564    0.6167 C.3     1  UNL1        0.1658
      5 C          65.3578   94.7110    0.3612 C.3     1  UNL1        0.0620
      6 C          65.8590   95.8599   -0.4626 C.3     1  UNL1        0.0726
      7 N          64.8903   96.8543   -1.0308 N.3     1  UNL1       -0.2968
      8 C          63.4204   96.6997   -0.7753 C.3     1  UNL1        0.0816
      9 C          62.9191   95.5507    0.0484 C.3     1  UNL1        0.1329
     10 C          62.4541   94.2732    0.9548 C.ar    1  UNL1        0.0228
     11 C          61.1811   94.9863    0.6069 C.ar    1  UNL1        0.0312
     12 C          59.8665   94.4569    1.0983 C.ar    1  UNL1        0.1672
     13 F          58.5936   95.1700    0.7504 F       1  UNL1       -0.2018
     14 C          59.8249   93.2143    1.9375 C.ar    1  UNL1        0.1676
     15 F          58.5102   92.6849    2.4289 F       1  UNL1       -0.2018
     16 C          61.0978   92.5012    2.2854 C.ar    1  UNL1        0.0382
     17 C          62.4124   93.0307    1.7941 C.ar    1  UNL1        0.0773
     18 H          65.0161   96.8426   -2.0430 H       1  UNL1        0.1233
     19 C          61.4491   95.3961    0.3040 C.2     1  UNL1        0.2305
     20 O          60.8857   95.7136    1.6573 O.2     1  UNL1       -0.2747
     21 N          60.5426   94.9239   -0.7939 N.am    1  UNL1       -0.2769
     22 C          61.1062   94.6064   -2.1474 C.3     1  UNL1        0.0758
     23 C          61.8553   93.6790   -3.0576 C.3     1  UNL1        0.0215
     24 C          61.3331   94.9839   -3.5812 C.3     1  UNL1        0.0215
     25 C          59.0727   94.7693   -0.5384 C.3     1  UNL1        0.1209
     26 C          58.1411   94.4712   -1.6756 C.ar    1  UNL1        0.0082
     27 C          57.7391   95.5634   -2.6218 C.ar    1  UNL1       -0.0018
     28 C          56.8074   95.2654   -3.7590 C.ar    1  UNL1       -0.0003
     29 C          56.2778   93.8751   -3.9501 C.ar    1  UNL1        0.0047
     30 C          56.6798   92.7827   -3.0038 C.ar    1  UNL1        0.0817
     31 C          57.6115   93.0808   -1.8666 C.ar    1  UNL1        0.0592
     32 CL         58.0135   91.9886   -0.9204 Cl      1  UNL1       -0.0826
     33 C          56.1502   91.3924   -3.1948 C.3     1  UNL1        0.4194
     34 F          55.6206   90.0021   -3.3859 F       1  UNL1       -0.1658
     35 F          57.1194   91.1777   -4.3193 F       1  UNL1       -0.1658
     36 F          55.1810   91.6071   -2.0704 F       1  UNL1       -0.1658
@<TRIPOS>BOND
     1     1     2    2
     2     2     3    1
     3     3     4    1
     4     4     5    1
     5     5     6    1
     6     6     7    1
     7     7     8    1
     8     8     9    1
     9     9    19    1
    10    19    20    2
    11    19    21   am
    12    21    25    1
    13    25    26    1
    14    26    27   ar
    15    27    28   ar
    16    28    29   ar
    17    29    30   ar
    18    30    33    1
    19    33    34    1
    20    33    35    1
    21    33    36    1
    22    30    31   ar
    23    31    32    1
    24    21    22    1
    25    22    23    1
    26    23    24    1
    27     4    10    1
    28    10    11   ar
    29    11    12   ar
    30    12    13    1
    31    12    14   ar
    32    14    15    1
    33    14    16   ar
    34    16    17   ar
    35    17     2    1
    36     9     4    1
    37    31    26   ar
    38    24    22    1
    39    17    10   ar
    40     7    18    1
@<TRIPOS>MOLECULE
*****
 36 40 0 0 0
SMALL
GASTEIGER

@<TRIPOS>ATOM
      1 O          63.0987   92.0892    3.1878 O.2     1  UNL1       -0.2449
      2 C          62.9727   93.0567    2.0486 C.2     1  UNL1        0.3412
      3 O          64.0635   93.9371    1.5146 O.3     1  UNL1       -0.4479
      4 C          63.4987   94.7383    0.3792 C.3     1  UNL1        0.1658
      5 C          64.9438   95.0203    0.6652 C.3     1  UNL1        0.0620
      6 C          65.6882   96.0295   -0.1578 C.3     1  UNL1        0.0726
      7 N          64.9873   96.7566   -1.2669 N.3     1  UNL1       -0.2968
      8 C          63.5421   96.4746   -1.5529 C.3     1  UNL1        0.0816
      9 C          62.7978   95.4654   -0.7299 C.3     1  UNL1        0.1329
     10 C          62.0587   94.3529    0.2114 C.ar    1  UNL1        0.0228
     11 C          61.0015   94.8142   -0.7476 C.ar    1  UNL1        0.0312
     12 C          59.6192   94.2362   -0.6749 C.ar    1  UNL1        0.1672
     13 F          58.5621   94.6974   -1.6338 F       1  UNL1       -0.2018
     14 C          59.2942   93.1969    0.3568 C.ar    1  UNL1        0.1676
     15 F          57.9120   92.6189    0.4295 F       1  UNL1       -0.2018
     16 C          60.3514   92.7357    1.3157 C.ar    1  UNL1        0.0382
     17 C          61.7336   93.3137    1.2431 C.ar    1  UNL1        0.0773
     18 H          65.5022   96.5534   -2.1237 H       1  UNL1        0.1233
     19 C          61.3525   95.1834   -1.0158 C.2     1  UNL1        0.2305
     20 O          60.2898   95.7083   -0.0967 O.2     1  UNL1       -0.2747
     21 N          60.9701   94.3764   -2.2210 N.am    1  UNL1       -0.2769
     22 C          62.0330   93.8514   -3.1402 C.3     1  UNL1        0.0758
     23 C          63.1559   92.8960   -3.4160 C.3     1  UNL1        0.0215
     24 C          62.7509   93.8976   -4.4565 C.3     1  UNL1        0.0215
     25 C          59.5250   94.0943   -2.5071 C.3     1  UNL1        0.1209
     26 C          59.0330   94.0628   -3.9238 C.ar    1  UNL1        0.0082
     27 C          59.5583   95.0513   -4.9222 C.ar    1  UNL1       -0.0018
     28 C          59.0664   95.0198   -6.3389 C.ar    1  UNL1       -0.0003
     29 C          58.0492   93.9998   -6.7571 C.ar    1  UNL1        0.0047
     30 C          57.5239   93.0112   -5.7587 C.ar    1  UNL1        0.0817
     31 C          58.0158   93.0427   -4.3420 C.ar    1  UNL1        0.0592
     32 CL         57.4905   92.0543   -3.3435 Cl      1  UNL1       -0.0826
     33 C          56.5067   91.9913   -6.1769 C.3     1  UNL1        0.4194
     34 F          55.4895   90.9713   -6.5951 F       1  UNL1       -0.1658
     35 F          55.4070   92.8905   -5.6952 F       1  UNL1       -0.1658
     36 F          57.6064   91.0921   -6.6585 F       1  UNL1       -0.1658
@<TRIPOS>BOND
     1     1     2    2
     2     2     3    1
     3     3     4    1
     4     4     5    1
     5     5     6    1
     6     6     7    1
     7     7     8    1
     8     8     9    1
     9     9    19    1
    10    19    20    2
    11    19    21   am
    12    21    25    1
    13    25    26    1
    14    26    27   ar
    15    27    28   ar
    16    28    29   ar
    17    29    30   ar
    18    30    33    1
    19    33    34    1
    20    33    35    1
    21    33    36    1
    22    30    31   ar
    23    31    32    1
    24    21    22    1
    25    22    23    1
    26    23    24    1
    27     4    10    1
    28    10    11   ar
    29    11    12   ar
    30    12    13    1
    31    12    14   ar
    32    14    15    1
    33    14    16   ar
    34    16    17   ar
    35    17     2    1
    36     9     4    1
    37    31    26   ar
    38    24    22    1
    39    17    10   ar
    40     7    18    1
@<TRIPOS>MOLECULE
*****
 36 40 0 0 0
SMALL
GASTEIGER

@<TRIPOS>ATOM
      1 O          64.6489   92.5926   10.0542 O.2     1  UNL1       -0.2449
      2 C          64.1951   91.6572   11.1353 C.2     1  UNL1        0.3412
      3 O          64.4769   91.8013   12.6016 O.3     1  UNL1       -0.4479
      4 C          63.8358   90.6465   13.3126 C.3     1  UNL1        0.1658
      5 C          64.5574   91.5975   14.2208 C.3     1  UNL1        0.0620
      6 C          64.5888   91.3449   15.6990 C.3     1  UNL1        0.0726
      7 N          63.8984   90.1414   16.2690 N.3     1  UNL1       -0.2968
      8 C          63.1767   89.1904   15.3608 C.3     1  UNL1        0.0816
      9 C          63.1454   89.4430   13.8826 C.3     1  UNL1        0.1329
     10 C          63.1578   89.7887   12.2857 C.ar    1  UNL1        0.0228
     11 C          62.3669   88.5194   12.4021 C.ar    1  UNL1        0.0312
     12 C          61.7980   87.8748   11.1729 C.ar    1  UNL1        0.1672
     13 F          61.0072   86.6056   11.2893 F       1  UNL1       -0.2018
     14 C          62.0202   88.4994    9.8273 C.ar    1  UNL1        0.1676
     15 F          61.4514   87.8548    8.5981 F       1  UNL1       -0.2018
     16 C          62.8111   89.7686    9.7109 C.ar    1  UNL1        0.0382
     17 C          63.3799   90.4132   10.9401 C.ar    1  UNL1        0.0773
     18 H          63.2119   90.4860   16.9400 H       1  UNL1        0.1233
     19 C          62.4237   88.4920   12.9744 C.2     1  UNL1        0.2305
     20 O          61.2870   88.9812   12.1268 O.2     1  UNL1       -0.2747
     21 N          62.8388   87.0519   12.9138 N.am    1  UNL1       -0.2769
     22 C          63.9756   86.5627   13.7615 C.3     1  UNL1        0.0758
     23 C          64.9711   85.4961   14.1096 C.3     1  UNL1        0.0215
     24 C          64.9490   86.7821   14.8814 C.3     1  UNL1        0.0215
     25 C          62.1171   86.1009   12.0056 C.3     1  UNL1        0.1209
     26 C          62.7346   84.7779   11.6616 C.ar    1  UNL1        0.0082
     27 C          63.4344   84.5958   10.3475 C.ar    1  UNL1       -0.0018
     28 C          64.0518   83.2727   10.0035 C.ar    1  UNL1       -0.0003
     29 C          63.9694   82.1317   10.9737 C.ar    1  UNL1        0.0047
     30 C          63.2695   82.3138   12.2880 C.ar    1  UNL1        0.0817
     31 C          62.6521   83.6369   12.6319 C.ar    1  UNL1        0.0592
     32 CL         61.9523   83.8190   13.9461 Cl      1  UNL1       -0.0826
     33 C          63.1871   81.1728   13.2582 C.3     1  UNL1        0.4194
     34 F          63.1048   80.0319   14.2284 F       1  UNL1       -0.1658
     35 F          64.1167   81.8958   14.1873 F       1  UNL1       -0.1658
     36 F          62.2576   80.4499   12.3291 F       1  UNL1       -0.1658
@<TRIPOS>BOND
     1     1     2    2
     2     2     3    1
     3     3     4    1
     4     4     5    1
     5     5     6    1
     6     6     7    1
     7     7     8    1
     8     8     9    1
     9     9    19    1
    10    19    20    2
    11    19    21   am
    12    21    25    1
    13    25    26    1
    14    26    27   ar
    15    27    28   ar
    16    28    29   ar
    17    29    30   ar
    18    30    33    1
    19    33    34    1
    20    33    35    1
    21    33    36    1
    22    30    31   ar
    23    31    32    1
    24    21    22    1
    25    22    23    1
    26    23    24    1
    27     4    10    1
    28    10    11   ar
    29    11    12   ar
    30    12    13    1
    31    12    14   ar
    32    14    15    1
    33    14    16   ar
    34    16    17   ar
    35    17     2    1
    36     9     4    1
    37    31    26   ar
    38    24    22    1
    39    17    10   ar
    40     7    18    1
@<TRIPOS>MOLECULE
*****
 36 40 0 0 0
SMALL
GASTEIGER

@<TRIPOS>ATOM
      1 O          63.8659   91.7475    2.9528 O.2     1  UNL1       -0.2449
      2 C          63.4962   92.8402    1.9940 C.2     1  UNL1        0.3412
      3 O          64.4529   93.7543    1.2874 O.3     1  UNL1       -0.4479
      4 C          63.6528   94.6897    0.4301 C.3     1  UNL1        0.1658
      5 C          65.1346   94.9097    0.3547 C.3     1  UNL1        0.0620
      6 C          65.6884   95.9912   -0.5249 C.3     1  UNL1        0.0726
      7 N          64.7604   96.8527   -1.3290 N.3     1  UNL1       -0.2968
      8 C          63.2786   96.6327   -1.2535 C.3     1  UNL1        0.0816
      9 C          62.7248   95.5512   -0.3740 C.3     1  UNL1        0.1329
     10 C          62.2016   94.3536    0.6067 C.ar    1  UNL1        0.0228
     11 C          60.9558   94.9407    0.0124 C.ar    1  UNL1        0.0312
     12 C          59.6132   94.3849    0.3844 C.ar    1  UNL1        0.1672
     13 F          58.3675   94.9720   -0.2099 F       1  UNL1       -0.2018
     14 C          59.5165   93.2418    1.3510 C.ar    1  UNL1        0.1676
     15 F          58.1739   92.6859    1.7231 F       1  UNL1       -0.2018
     16 C          60.7622   92.6547    1.9453 C.ar    1  UNL1        0.0382
     17 C          62.1048   93.2106    1.5732 C.ar    1  UNL1        0.0773
     18 H          65.0257   96.7381   -2.3072 H       1  UNL1        0.1233
     19 C          61.2429   95.3312   -0.2986 C.2     1  UNL1        0.2305
     20 O          60.4798   95.7731    0.9148 O.2     1  UNL1       -0.2747
     21 N          60.5241   94.6691   -1.4366 N.am    1  UNL1       -0.2769
     22 C          61.2872   94.2272   -2.6500 C.3     1  UNL1        0.0758
     23 C          61.5196   94.2850   -4.1308 C.3     1  UNL1        0.0215
     24 C          62.3765   93.4038   -3.2710 C.3     1  UNL1        0.0215
     25 C          59.0422   94.4491   -1.3612 C.3     1  UNL1        0.1209
     26 C          58.3135   93.8454   -2.5250 C.ar    1  UNL1        0.0082
     27 C          58.2348   92.3544   -2.6689 C.ar    1  UNL1       -0.0018
     28 C          57.5060   91.7507   -3.8327 C.ar    1  UNL1       -0.0003
     29 C          56.8559   92.6379   -4.8525 C.ar    1  UNL1        0.0047
     30 C          56.9346   94.1290   -4.7086 C.ar    1  UNL1        0.0817
     31 C          57.6634   94.7327   -3.5448 C.ar    1  UNL1        0.0592
     32 CL         57.7420   96.2237   -3.4009 Cl      1  UNL1       -0.0826
     33 C          56.2845   95.0162   -5.7285 C.3     1  UNL1        0.4194
     34 F          55.6344   95.9035   -6.7483 F       1  UNL1       -0.1658
     35 F          57.5294   94.9681   -6.5639 F       1  UNL1       -0.1658
     36 F          55.0396   95.0643   -4.8931 F       1  UNL1       -0.1658
@<TRIPOS>BOND
     1     1     2    2
     2     2     3    1
     3     3     4    1
     4     4     5    1
     5     5     6    1
     6     6     7    1
     7     7     8    1
     8     8     9    1
     9     9    19    1
    10    19    20    2
    11    19    21   am
    12    21    25    1
    13    25    26    1
    14    26    27   ar
    15    27    28   ar
    16    28    29   ar
    17    29    30   ar
    18    30    33    1
    19    33    34    1
    20    33    35    1
    21    33    36    1
    22    30    31   ar
    23    31    32    1
    24    21    22    1
    25    22    23    1
    26    23    24    1
    27     4    10    1
    28    10    11   ar
    29    11    12   ar
    30    12    13    1
    31    12    14   ar
    32    14    15    1
    33    14    16   ar
    34    16    17   ar
    35    17     2    1
    36     9     4    1
    37    31    26   ar
    38    24    22    1
    39    17    10   ar
    40     7    18    1
@<TRIPOS>MOLECULE
*****
 36 40 0 0 0
SMALL
GASTEIGER

@<TRIPOS>ATOM
      1 O          67.6347   93.7393   10.6667 O.2     1  UNL1       -0.2449
      2 C          66.7267   93.1136   11.6835 C.2     1  UNL1        0.3412
      3 O          66.9345   93.1124   13.1691 O.3     1  UNL1       -0.4479
      4 C          65.7876   92.3772   13.7971 C.3     1  UNL1        0.1658
      5 C          66.7941   92.8934   14.7822 C.3     1  UNL1        0.0620
      6 C          66.5983   92.6535   16.2498 C.3     1  UNL1        0.0726
      7 N          65.3959   91.8975   16.7324 N.3     1  UNL1       -0.2968
      8 C          64.3895   91.3813   15.7472 C.3     1  UNL1        0.0816
      9 C          64.5853   91.6212   14.2796 C.3     1  UNL1        0.1329
     10 C          64.8710   91.9240   12.6995 C.ar    1  UNL1        0.0228
     11 C          63.5829   91.1557   12.7208 C.ar    1  UNL1        0.0312
     12 C          62.8751   90.8425   11.4360 C.ar    1  UNL1        0.1672
     13 F          61.5870   90.0742   11.4573 F       1  UNL1       -0.2018
     14 C          63.4555   91.2976   10.1298 C.ar    1  UNL1        0.1676
     15 F          62.7477   90.9844    8.8449 F       1  UNL1       -0.2018
     16 C          64.7435   92.0658   10.1085 C.ar    1  UNL1        0.0382
     17 C          65.4513   92.3791   11.3933 C.ar    1  UNL1        0.0773
     18 H          64.8943   92.5171   17.3686 H       1  UNL1        0.1233
     19 C          63.5788   91.1050   13.2944 C.2     1  UNL1        0.2305
     20 O          62.8986   92.0524   12.3510 O.2     1  UNL1       -0.2747
     21 N          63.2525   89.6416   13.2525 N.am    1  UNL1       -0.2769
     22 C          63.9328   88.6942   14.1959 C.3     1  UNL1        0.0758
     23 C          63.9660   87.9674   15.5076 C.3     1  UNL1        0.0215
     24 C          65.0777   87.7803   14.5182 C.3     1  UNL1        0.0215
     25 C          62.2461   89.1254   12.2674 C.3     1  UNL1        0.1209
     26 C          62.3609   87.7252   11.7417 C.ar    1  UNL1        0.0082
     27 C          62.8539   86.6265   12.6359 C.ar    1  UNL1       -0.0018
     28 C          62.9688   85.2263   12.1103 C.ar    1  UNL1       -0.0003
     29 C          62.5906   84.9249   10.6904 C.ar    1  UNL1        0.0047
     30 C          62.0976   86.0236    9.7961 C.ar    1  UNL1        0.0817
     31 C          61.9827   87.4238   10.3218 C.ar    1  UNL1        0.0592
     32 CL         61.4897   88.5226    9.4275 Cl      1  UNL1       -0.0826
     33 C          61.7194   85.7222    8.3762 C.3     1  UNL1        0.4194
     34 F          61.3412   85.4208    6.9563 F       1  UNL1       -0.1658
     35 F          63.1707   85.6203    8.0113 F       1  UNL1       -0.1658
     36 F          60.2681   85.8241    8.7411 F       1  UNL1       -0.1658
@<TRIPOS>BOND
     1     1     2    2
     2     2     3    1
     3     3     4    1
     4     4     5    1
     5     5     6    1
     6     6     7    1
     7     7     8    1
     8     8     9    1
     9     9    19    1
    10    19    20    2
    11    19    21   am
    12    21    25    1
    13    25    26    1
    14    26    27   ar
    15    27    28   ar
    16    28    29   ar
    17    29    30   ar
    18    30    33    1
    19    33    34    1
    20    33    35    1
    21    33    36    1
    22    30    31   ar
    23    31    32    1
    24    21    22    1
    25    22    23    1
    26    23    24    1
    27     4    10    1
    28    10    11   ar
    29    11    12   ar
    30    12    13    1
    31    12    14   ar
    32    14    15    1
    33    14    16   ar
    34    16    17   ar
    35    17     2    1
    36     9     4    1
    37    31    26   ar
    38    24    22    1
    39    17    10   ar
    40     7    18    1
@<TRIPOS>MOLECULE
*****
 36 40 0 0 0
SMALL
GASTEIGER

@<TRIPOS>ATOM
      1 O          63.1965   84.4847    7.1642 O.2     1  UNL1       -0.2449
      2 C          62.9664   84.6531    8.6368 C.2     1  UNL1        0.3412
      3 O          63.1048   83.5831    9.6789 O.3     1  UNL1       -0.4479
      4 C          62.7814   84.1898   11.0121 C.3     1  UNL1        0.1658
      5 C          63.1420   82.7352   11.0751 C.3     1  UNL1        0.0620
      6 C          63.1546   82.0221   12.3947 C.3     1  UNL1        0.0726
      7 N          62.8067   82.7637   13.6513 N.3     1  UNL1       -0.2968
      8 C          62.4461   84.2183   13.5883 C.3     1  UNL1        0.0816
      9 C          62.4334   84.9314   12.2687 C.3     1  UNL1        0.1329
     10 C          62.4429   85.6348   10.7939 C.ar    1  UNL1        0.0228
     11 C          62.0454   86.7268   11.7423 C.ar    1  UNL1        0.0312
     12 C          61.7623   88.1052   11.2228 C.ar    1  UNL1        0.1672
     13 F          61.3648   89.1971   12.1711 F       1  UNL1       -0.2018
     14 C          61.8766   88.3914    9.7547 C.ar    1  UNL1        0.1676
     15 F          61.5935   89.7698    9.2352 F       1  UNL1       -0.2018
     16 C          62.2741   87.2995    8.8064 C.ar    1  UNL1        0.0382
     17 C          62.5573   85.9211    9.3259 C.ar    1  UNL1        0.0773
     18 H          63.6129   82.6868   14.2714 H       1  UNL1        0.1233
     19 C          62.0728   86.3861   12.2056 C.2     1  UNL1        0.2305
     20 O          60.9254   86.8380   11.3518 O.2     1  UNL1       -0.2747
     21 N          62.8597   87.3888   12.9964 N.am    1  UNL1       -0.2769
     22 C          64.0072   86.9368   13.8503 C.3     1  UNL1        0.0758
     23 C          65.0228   85.8954   14.2162 C.3     1  UNL1        0.0215
     24 C          64.9790   87.1953   14.9633 C.3     1  UNL1        0.0215
     25 C          62.4991   88.8434   12.9334 C.3     1  UNL1        0.1209
     26 C          63.4104   89.8689   13.5398 C.ar    1  UNL1        0.0082
     27 C          63.4830   90.0200   15.0304 C.ar    1  UNL1       -0.0018
     28 C          64.3942   91.0456   15.6369 C.ar    1  UNL1       -0.0003
     29 C          65.2330   91.9201   14.7527 C.ar    1  UNL1        0.0047
     30 C          65.1605   91.7690   13.2621 C.ar    1  UNL1        0.0817
     31 C          64.2492   90.7435   12.6556 C.ar    1  UNL1        0.0592
     32 CL         64.1766   90.5924   11.1650 Cl      1  UNL1       -0.0826
     33 C          65.9992   92.6435   12.3780 C.3     1  UNL1        0.4194
     34 F          66.8379   93.5180   11.4938 F       1  UNL1       -0.1658
     35 F          64.7558   93.2471   11.7954 F       1  UNL1       -0.1658
     36 F          67.2427   92.0399   12.9605 F       1  UNL1       -0.1658
@<TRIPOS>BOND
     1     1     2    2
     2     2     3    1
     3     3     4    1
     4     4     5    1
     5     5     6    1
     6     6     7    1
     7     7     8    1
     8     8     9    1
     9     9    19    1
    10    19    20    2
    11    19    21   am
    12    21    25    1
    13    25    26    1
    14    26    27   ar
    15    27    28   ar
    16    28    29   ar
    17    29    30   ar
    18    30    33    1
    19    33    34    1
    20    33    35    1
    21    33    36    1
    22    30    31   ar
    23    31    32    1
    24    21    22    1
    25    22    23    1
    26    23    24    1
    27     4    10    1
    28    10    11   ar
    29    11    12   ar
    30    12    13    1
    31    12    14   ar
    32    14    15    1
    33    14    16   ar
    34    16    17   ar
    35    17     2    1
    36     9     4    1
    37    31    26   ar
    38    24    22    1
    39    17    10   ar
    40     7    18    1
