@<TRIPOS>MOLECULE
*****
 32 36 0 0 0
SMALL
GASTEIGER

@<TRIPOS>ATOM
      1 C          62.7953   86.6594   11.8721 C.2     1  UNL1        0.2506
      2 O          63.4704   87.3502   13.0197 O.2     1  UNL1       -0.2699
      3 N          61.8196   87.4093   11.0144 N.am    1  UNL1       -0.2723
      4 C          61.1445   86.7185    9.8667 C.3     1  UNL1        0.1257
      5 C          60.1687   87.4684    9.0091 C.3     1  UNL1        0.1637
      6 O          59.8681   88.9091    9.2991 O.3     1  UNL1       -0.3502
      7 C          60.5431   89.5998   10.4467 C.3     1  UNL1        0.1622
      8 C          61.5189   88.8500   11.3044 C.3     1  UNL1        0.1096
      9 C          63.7741   81.8403   13.5510 C.3     1  UNL1        0.0327
     10 C          63.5854   82.8093   12.4215 C.ar    1  UNL1       -0.0023
     11 C          63.6975   82.3375   11.0020 C.ar    1  UNL1       -0.0027
     12 C          63.5088   83.3064    9.8726 C.ar    1  UNL1       -0.0001
     13 C          63.2081   84.7470   10.1626 C.ar    1  UNL1        0.0061
     14 C          63.0961   85.2187   11.5821 C.ar    1  UNL1        0.0726
     15 C          63.2847   84.2499   12.7115 C.ar    1  UNL1        0.1032
     16 N          63.1727   84.7217   14.1310 N.ar    1  UNL1       -0.1480
     17 N          64.2870   85.2812   14.9647 N.ar    1  UNL1       -0.1447
     18 C          63.7296   85.6221   16.3149 C.ar    1  UNL1        0.1446
     19 C          62.2708   85.2732   16.3157 C.ar    1  UNL1        0.1446
     20 N          61.9266   84.7167   14.9660 N.ar    1  UNL1       -0.1447
     21 C          62.1939   89.5408   12.4520 C.3     1  UNL1        0.0487
     22 C          63.2789   90.5431   12.1909 C.ar    1  UNL1       -0.0203
     23 C          63.5019   91.0618   10.8012 C.ar    1  UNL1       -0.0042
     24 C          64.5869   92.0642   10.5400 C.ar    1  UNL1       -0.0002
     25 C          65.4488   92.5477   11.6684 C.ar    1  UNL1        0.0031
     26 C          65.2257   92.0288   13.0581 C.ar    1  UNL1        0.0388
     27 C          64.1408   91.0266   13.3193 C.ar    1  UNL1       -0.0011
     28 C          66.0877   92.5123   14.1865 C.ar    1  UNL1        0.2037
     29 N          67.4787   93.0594   14.0616 N.ar    1  UNL1       -0.1829
     30 C          67.9607   93.4188   15.4358 C.ar    1  UNL1        0.3164
     31 O          66.8674   93.0939   16.4101 O.2     1  UNL1       -0.3274
     32 N          65.7098   92.5337   15.6380 N.ar    1  UNL1       -0.0554
@<TRIPOS>BOND
     1     9    10    1
     2    10    11   ar
     3    11    12   ar
     4    12    13   ar
     5    13    14   ar
     6    14     1    1
     7     1     2    2
     8     1     3   am
     9     3     4    1
    10     4     5    1
    11     5     6    1
    12     6     7    1
    13     7     8    1
    14     8    21    1
    15    21    22    1
    16    22    23   ar
    17    23    24   ar
    18    24    25   ar
    19    25    26   ar
    20    26    28    1
    21    28    29   ar
    22    29    30   ar
    23    30    31   ar
    24    31    32   ar
    25    26    27   ar
    26    14    15   ar
    27    15    16    1
    28    16    17   ar
    29    17    18   ar
    30    18    19   ar
    31    19    20   ar
    32    15    10   ar
    33    20    16   ar
    34     8     3    1
    35    27    22   ar
    36    32    28   ar
@<TRIPOS>MOLECULE
*****
 32 36 0 0 0
SMALL
GASTEIGER

@<TRIPOS>ATOM
      1 C          63.0561   87.0604   12.4002 C.2     1  UNL1        0.2506
      2 O          63.6506   87.4645   13.7167 O.2     1  UNL1       -0.2699
      3 N          62.4080   88.0896   11.5224 N.am    1  UNL1       -0.2723
      4 C          61.8135   87.6855   10.2059 C.3     1  UNL1        0.1257
      5 C          61.1653   88.7149    9.3281 C.3     1  UNL1        0.1637
      6 O          61.1117   90.1482    9.7669 O.3     1  UNL1       -0.3502
      7 C          61.7062   90.5524   11.0834 C.3     1  UNL1        0.1622
      8 C          62.3544   89.5231   11.9612 C.3     1  UNL1        0.1096
      9 C          63.2036   81.9993   13.5681 C.3     1  UNL1        0.0327
     10 C          63.1835   83.0965   12.5454 C.ar    1  UNL1       -0.0023
     11 C          63.2169   82.7602   11.0840 C.ar    1  UNL1       -0.0027
     12 C          63.1968   83.8573   10.0613 C.ar    1  UNL1       -0.0001
     13 C          63.1432   85.2907   10.5001 C.ar    1  UNL1        0.0061
     14 C          63.1097   85.6269   11.9615 C.ar    1  UNL1        0.0726
     15 C          63.1298   84.5298   12.9842 C.ar    1  UNL1        0.1032
     16 N          63.0964   84.8661   14.4456 N.ar    1  UNL1       -0.1480
     17 N          61.8749   84.8962   15.3157 N.ar    1  UNL1       -0.1447
     18 C          62.3021   85.2800   16.7014 C.ar    1  UNL1        0.1446
     19 C          63.7876   85.4872   16.6878 C.ar    1  UNL1        0.1446
     20 N          64.2785   85.2314   15.2936 N.ar    1  UNL1       -0.1447
     21 C          62.9489   89.9272   13.2777 C.3     1  UNL1        0.0487
     22 C          64.2465   90.6787   13.3156 C.ar    1  UNL1       -0.0203
     23 C          65.1710   90.5202   14.4861 C.ar    1  UNL1       -0.0042
     24 C          66.4687   91.2717   14.5240 C.ar    1  UNL1       -0.0002
     25 C          66.8417   92.1817   13.3914 C.ar    1  UNL1        0.0031
     26 C          65.9171   92.3402   12.2209 C.ar    1  UNL1        0.0388
     27 C          64.6195   91.5887   12.1830 C.ar    1  UNL1       -0.0011
     28 C          66.2902   93.2501   11.0883 C.ar    1  UNL1        0.2037
     29 N          67.4890   93.1046   10.1985 N.ar    1  UNL1       -0.1829
     30 C          67.4696   94.2300    9.2069 C.ar    1  UNL1        0.3164
     31 O          66.2589   95.0710    9.4839 O.2     1  UNL1       -0.3274
     32 N          65.5299   94.4655   10.6466 N.ar    1  UNL1       -0.0554
@<TRIPOS>BOND
     1     9    10    1
     2    10    11   ar
     3    11    12   ar
     4    12    13   ar
     5    13    14   ar
     6    14     1    1
     7     1     2    2
     8     1     3   am
     9     3     4    1
    10     4     5    1
    11     5     6    1
    12     6     7    1
    13     7     8    1
    14     8    21    1
    15    21    22    1
    16    22    23   ar
    17    23    24   ar
    18    24    25   ar
    19    25    26   ar
    20    26    28    1
    21    28    29   ar
    22    29    30   ar
    23    30    31   ar
    24    31    32   ar
    25    26    27   ar
    26    14    15   ar
    27    15    16    1
    28    16    17   ar
    29    17    18   ar
    30    18    19   ar
    31    19    20   ar
    32    15    10   ar
    33    20    16   ar
    34     8     3    1
    35    27    22   ar
    36    32    28   ar
@<TRIPOS>MOLECULE
*****
 32 36 0 0 0
SMALL
GASTEIGER

@<TRIPOS>ATOM
      1 C          62.7863   88.5166   11.5232 C.2     1  UNL1        0.2506
      2 O          62.7845   90.0155   11.4663 O.2     1  UNL1       -0.2699
      3 N          63.3732   87.8118   12.7101 N.am    1  UNL1       -0.2723
      4 C          63.3749   86.3129   12.7670 C.3     1  UNL1        0.1257
      5 C          63.9619   85.6081   13.9539 C.3     1  UNL1        0.1637
      6 O          64.5470   86.4022   15.0839 O.3     1  UNL1       -0.3502
      7 C          64.5452   87.9012   15.0270 C.3     1  UNL1        0.1622
      8 C          63.9583   88.6059   13.8401 C.3     1  UNL1        0.1096
      9 C          58.7409   87.3071    8.4945 C.3     1  UNL1        0.0327
     10 C          60.1785   87.1177    8.8788 C.ar    1  UNL1       -0.0023
     11 C          61.0309   86.1342    8.1330 C.ar    1  UNL1       -0.0027
     12 C          62.4684   85.9449    8.5173 C.ar    1  UNL1       -0.0001
     13 C          63.0535   86.7390    9.6473 C.ar    1  UNL1        0.0061
     14 C          62.2011   87.7225   10.3931 C.ar    1  UNL1        0.0726
     15 C          60.7636   87.9118   10.0088 C.ar    1  UNL1        0.1032
     16 N          59.9112   88.8953   10.7546 N.ar    1  UNL1       -0.1480
     17 N          59.1288   88.6151   12.0034 N.ar    1  UNL1       -0.1447
     18 C          58.4256   89.8783   12.4031 C.ar    1  UNL1        0.1446
     19 C          58.7733   90.9393   11.4014 C.ar    1  UNL1        0.1446
     20 N          59.6915   90.3317   10.3826 N.ar    1  UNL1       -0.1447
     21 C          63.9566   90.1049   13.7832 C.3     1  UNL1        0.0487
     22 C          65.2546   90.8552   13.7365 C.ar    1  UNL1       -0.0203
     23 C          66.1535   90.8740   14.9371 C.ar    1  UNL1       -0.0042
     24 C          67.4516   91.6244   14.8903 C.ar    1  UNL1       -0.0002
     25 C          67.8506   92.3558   13.6430 C.ar    1  UNL1        0.0031
     26 C          66.9516   92.3369   12.4424 C.ar    1  UNL1        0.0388
     27 C          65.6536   91.5866   12.4891 C.ar    1  UNL1       -0.0011
     28 C          67.3506   93.0683   11.1951 C.ar    1  UNL1        0.2037
     29 N          66.9069   94.4458   10.8006 N.ar    1  UNL1       -0.1829
     30 C          67.5454   94.7795    9.4849 C.ar    1  UNL1        0.3164
     31 O          68.3838   93.6082    9.0663 O.2     1  UNL1       -0.3274
     32 N          68.2634   92.5505   10.1232 N.ar    1  UNL1       -0.0554
@<TRIPOS>BOND
     1     9    10    1
     2    10    11   ar
     3    11    12   ar
     4    12    13   ar
     5    13    14   ar
     6    14     1    1
     7     1     2    2
     8     1     3   am
     9     3     4    1
    10     4     5    1
    11     5     6    1
    12     6     7    1
    13     7     8    1
    14     8    21    1
    15    21    22    1
    16    22    23   ar
    17    23    24   ar
    18    24    25   ar
    19    25    26   ar
    20    26    28    1
    21    28    29   ar
    22    29    30   ar
    23    30    31   ar
    24    31    32   ar
    25    26    27   ar
    26    14    15   ar
    27    15    16    1
    28    16    17   ar
    29    17    18   ar
    30    18    19   ar
    31    19    20   ar
    32    15    10   ar
    33    20    16   ar
    34     8     3    1
    35    27    22   ar
    36    32    28   ar
@<TRIPOS>MOLECULE
*****
 32 36 0 0 0
SMALL
GASTEIGER

@<TRIPOS>ATOM
      1 C          62.7180   88.9598   11.6439 C.2     1  UNL1        0.2506
      2 O          62.9093   87.8038   12.5805 O.2     1  UNL1       -0.2699
      3 N          61.6819   88.8847   10.5618 N.am    1  UNL1       -0.2723
      4 C          61.4906   90.0406    9.6251 C.3     1  UNL1        0.1257
      5 C          60.4545   89.9656    8.5430 C.3     1  UNL1        0.1637
      6 O          59.6098   88.7346    8.3975 O.3     1  UNL1       -0.3502
      7 C          59.8011   87.5787    9.3342 C.3     1  UNL1        0.1622
      8 C          60.8371   87.6538   10.4163 C.3     1  UNL1        0.1096
      9 C          65.5364   92.1581   14.6150 C.3     1  UNL1        0.0327
     10 C          64.9720   91.7898   13.2749 C.ar    1  UNL1       -0.0023
     11 C          65.2523   92.6525   12.0802 C.ar    1  UNL1       -0.0027
     12 C          64.6878   92.2844   10.7402 C.ar    1  UNL1       -0.0001
     13 C          63.8431   91.0535   10.5947 C.ar    1  UNL1        0.0061
     14 C          63.5628   90.1907   11.7894 C.ar    1  UNL1        0.0726
     15 C          64.1272   90.5589   13.1294 C.ar    1  UNL1        0.1032
     16 N          63.8469   89.6962   14.3240 N.ar    1  UNL1       -0.1480
     17 N          62.8200   89.9646   15.3840 N.ar    1  UNL1       -0.1447
     18 C          62.8827   88.8478   16.3835 C.ar    1  UNL1        0.1446
     19 C          63.9483   87.8892   15.9413 C.ar    1  UNL1        0.1446
     20 N          64.5442   88.4135   14.6685 N.ar    1  UNL1       -0.1447
     21 C          61.0284   86.4979   11.3529 C.3     1  UNL1        0.0487
     22 C          61.9436   85.3707   10.9761 C.ar    1  UNL1       -0.0203
     23 C          62.6780   85.4061    9.6687 C.ar    1  UNL1       -0.0042
     24 C          63.5932   84.2789    9.2919 C.ar    1  UNL1       -0.0002
     25 C          63.7740   83.1165   10.2225 C.ar    1  UNL1        0.0031
     26 C          63.0395   83.0812   11.5300 C.ar    1  UNL1        0.0388
     27 C          62.1244   84.2083   11.9067 C.ar    1  UNL1       -0.0011
     28 C          63.2203   81.9187   12.4606 C.ar    1  UNL1        0.2037
     29 N          62.5514   80.5815   12.3413 N.ar    1  UNL1       -0.1829
     30 C          63.0194   79.7257   13.4809 C.ar    1  UNL1        0.3164
     31 O          63.9776   80.5341   14.3045 O.2     1  UNL1       -0.3274
     32 N          64.1018   81.8895   13.6740 N.ar    1  UNL1       -0.0554
@<TRIPOS>BOND
     1     9    10    1
     2    10    11   ar
     3    11    12   ar
     4    12    13   ar
     5    13    14   ar
     6    14     1    1
     7     1     2    2
     8     1     3   am
     9     3     4    1
    10     4     5    1
    11     5     6    1
    12     6     7    1
    13     7     8    1
    14     8    21    1
    15    21    22    1
    16    22    23   ar
    17    23    24   ar
    18    24    25   ar
    19    25    26   ar
    20    26    28    1
    21    28    29   ar
    22    29    30   ar
    23    30    31   ar
    24    31    32   ar
    25    26    27   ar
    26    14    15   ar
    27    15    16    1
    28    16    17   ar
    29    17    18   ar
    30    18    19   ar
    31    19    20   ar
    32    15    10   ar
    33    20    16   ar
    34     8     3    1
    35    27    22   ar
    36    32    28   ar
@<TRIPOS>MOLECULE
*****
 32 36 0 0 0
SMALL
GASTEIGER

@<TRIPOS>ATOM
      1 C          64.0727   90.5350   13.3678 C.2     1  UNL1        0.2506
      2 O          63.5588   91.2558   12.1569 O.2     1  UNL1       -0.2699
      3 N          63.9311   89.0453   13.4701 N.am    1  UNL1       -0.2723
      4 C          64.4449   88.3244   14.6811 C.3     1  UNL1        0.1257
      5 C          64.3033   86.8346   14.7833 C.3     1  UNL1        0.1637
      6 O          63.6478   86.0656   13.6747 O.3     1  UNL1       -0.3502
      7 C          63.1340   86.7865   12.4638 C.3     1  UNL1        0.1622
      8 C          63.2756   88.2762   12.3615 C.3     1  UNL1        0.1096
      9 C          67.8046   93.7517   15.0189 C.3     1  UNL1        0.0327
     10 C          66.5941   92.9123   15.3020 C.ar    1  UNL1       -0.0023
     11 C          66.0390   92.8419   16.6937 C.ar    1  UNL1       -0.0027
     12 C          64.8285   92.0026   16.9768 C.ar    1  UNL1       -0.0001
     13 C          64.1731   91.2336   15.8682 C.ar    1  UNL1        0.0061
     14 C          64.7282   91.3040   14.4765 C.ar    1  UNL1        0.0726
     15 C          65.9386   92.1434   14.1933 C.ar    1  UNL1        0.1032
     16 N          66.4937   92.2137   12.8016 N.ar    1  UNL1       -0.1480
     17 N          67.8047   91.6452   12.3454 N.ar    1  UNL1       -0.1447
     18 C          67.9565   91.9451   10.8836 C.ar    1  UNL1        0.1446
     19 C          66.7393   92.6990   10.4362 C.ar    1  UNL1        0.1446
     20 N          65.8352   92.8650   11.6216 N.ar    1  UNL1       -0.1447
     21 C          62.7617   88.9971   11.1506 C.3     1  UNL1        0.0487
     22 C          61.6782   88.3821   10.3152 C.ar    1  UNL1       -0.0203
     23 C          60.2563   88.8290   10.4840 C.ar    1  UNL1       -0.0042
     24 C          59.1727   88.2140    9.6486 C.ar    1  UNL1       -0.0002
     25 C          59.5111   87.1522    8.6446 C.ar    1  UNL1        0.0031
     26 C          60.9331   86.7054    8.4759 C.ar    1  UNL1        0.0388
     27 C          62.0166   87.3203    9.3112 C.ar    1  UNL1       -0.0011
     28 C          61.2714   85.6435    7.4719 C.ar    1  UNL1        0.2037
     29 N          62.6476   85.1414    7.1495 N.ar    1  UNL1       -0.1829
     30 C          62.5198   84.0850    6.0923 C.ar    1  UNL1        0.3164
     31 O          61.0645   83.9341    5.7614 O.2     1  UNL1       -0.3274
     32 N          60.2929   84.8974    6.6140 N.ar    1  UNL1       -0.0554
@<TRIPOS>BOND
     1     9    10    1
     2    10    11   ar
     3    11    12   ar
     4    12    13   ar
     5    13    14   ar
     6    14     1    1
     7     1     2    2
     8     1     3   am
     9     3     4    1
    10     4     5    1
    11     5     6    1
    12     6     7    1
    13     7     8    1
    14     8    21    1
    15    21    22    1
    16    22    23   ar
    17    23    24   ar
    18    24    25   ar
    19    25    26   ar
    20    26    28    1
    21    28    29   ar
    22    29    30   ar
    23    30    31   ar
    24    31    32   ar
    25    26    27   ar
    26    14    15   ar
    27    15    16    1
    28    16    17   ar
    29    17    18   ar
    30    18    19   ar
    31    19    20   ar
    32    15    10   ar
    33    20    16   ar
    34     8     3    1
    35    27    22   ar
    36    32    28   ar
@<TRIPOS>MOLECULE
*****
 32 36 0 0 0
SMALL
GASTEIGER

@<TRIPOS>ATOM
      1 C          62.8446   88.1356   11.0110 C.2     1  UNL1        0.2506
      2 O          63.1672   89.5856   10.8022 O.2     1  UNL1       -0.2699
      3 N          63.2341   87.4574   12.2909 N.am    1  UNL1       -0.2723
      4 C          62.9115   86.0075   12.4997 C.3     1  UNL1        0.1257
      5 C          63.3010   85.3292   13.7797 C.3     1  UNL1        0.1637
      6 O          64.0131   86.1009   14.8509 O.3     1  UNL1       -0.3502
      7 C          64.3357   87.5509   14.6421 C.3     1  UNL1        0.1622
      8 C          63.9462   88.2291   13.3622 C.3     1  UNL1        0.1096
      9 C          58.5087   87.0900    8.3451 C.3     1  UNL1        0.0327
     10 C          59.9646   86.8411    8.6069 C.ar    1  UNL1       -0.0023
     11 C          60.7084   85.8205    7.7975 C.ar    1  UNL1       -0.0027
     12 C          62.1642   85.5717    8.0592 C.ar    1  UNL1       -0.0001
     13 C          62.8763   86.3434    9.1304 C.ar    1  UNL1        0.0061
     14 C          62.1325   87.3639    9.9398 C.ar    1  UNL1        0.0726
     15 C          60.6766   87.6128    9.6781 C.ar    1  UNL1        0.1032
     16 N          59.9328   88.6334   10.4875 N.ar    1  UNL1       -0.1480
     17 N          59.2060   88.3787   11.7747 N.ar    1  UNL1       -0.1447
     18 C          58.6092   89.6757   12.2346 C.ar    1  UNL1        0.1446
     19 C          58.9672   90.7321   11.2317 C.ar    1  UNL1        0.1446
     20 N          59.7853   90.0879   10.1519 N.ar    1  UNL1       -0.1447
     21 C          64.2688   89.6791   13.1534 C.3     1  UNL1        0.0487
     22 C          64.6350   90.5421   14.3242 C.ar    1  UNL1       -0.0203
     23 C          63.6897   90.6773   15.4810 C.ar    1  UNL1       -0.0042
     24 C          64.0559   91.5404   16.6519 C.ar    1  UNL1       -0.0002
     25 C          65.3674   92.2682   16.6661 C.ar    1  UNL1        0.0031
     26 C          66.3128   92.1329   15.5093 C.ar    1  UNL1        0.0388
     27 C          65.9466   91.2698   14.3384 C.ar    1  UNL1       -0.0011
     28 C          67.6243   92.8606   15.5235 C.ar    1  UNL1        0.2037
     29 N          67.9986   93.9855   16.4425 N.ar    1  UNL1       -0.1829
     30 C          69.3975   94.4114   16.1081 C.ar    1  UNL1        0.3164
     31 O          69.8878   93.5497   14.9825 O.2     1  UNL1       -0.3274
     32 N          68.7920   92.5913   14.6211 N.ar    1  UNL1       -0.0554
@<TRIPOS>BOND
     1     9    10    1
     2    10    11   ar
     3    11    12   ar
     4    12    13   ar
     5    13    14   ar
     6    14     1    1
     7     1     2    2
     8     1     3   am
     9     3     4    1
    10     4     5    1
    11     5     6    1
    12     6     7    1
    13     7     8    1
    14     8    21    1
    15    21    22    1
    16    22    23   ar
    17    23    24   ar
    18    24    25   ar
    19    25    26   ar
    20    26    28    1
    21    28    29   ar
    22    29    30   ar
    23    30    31   ar
    24    31    32   ar
    25    26    27   ar
    26    14    15   ar
    27    15    16    1
    28    16    17   ar
    29    17    18   ar
    30    18    19   ar
    31    19    20   ar
    32    15    10   ar
    33    20    16   ar
    34     8     3    1
    35    27    22   ar
    36    32    28   ar
