@<TRIPOS>MOLECULE
*****
 32 34 0 0 0
SMALL
GASTEIGER

@<TRIPOS>ATOM
      1 C          64.5428   90.3459   14.6022 C.ar    1  UNL1        0.0050
      2 C          63.8787   90.9642   15.7967 C.ar    1  UNL1       -0.0001
      3 C          63.2486   90.0905   16.8404 C.ar    1  UNL1       -0.0030
      4 C          63.2824   88.5984   16.6897 C.ar    1  UNL1       -0.0088
      5 C          63.9464   87.9801   15.4953 C.ar    1  UNL1        0.0438
      6 C          64.5766   88.8538   14.4515 C.ar    1  UNL1        0.0143
      7 N          63.9803   86.4881   15.3446 N.pl3   1  UNL1       -0.3077
      8 C          63.3501   85.6144   16.3883 C.3     1  UNL1        0.0911
      9 C          62.6860   86.2327   17.5828 C.3     1  UNL1        0.0261
     10 C          62.6522   87.7247   17.7335 C.3     1  UNL1        0.0294
     11 C          66.5523   91.7688   13.7731 C.ar    1  UNL1        0.0645
     12 N          67.1825   92.6425   12.7294 N.ar    1  UNL1       -0.2183
     13 C          66.4335   92.9670   11.4709 C.ar    1  UNL1        0.2145
     14 N          67.0637   93.8407   10.4272 N.pl3   1  UNL1       -0.3274
     15 N          65.0542   92.4179   11.2562 N.ar    1  UNL1       -0.1995
     16 C          64.4240   91.5441   12.3000 C.ar    1  UNL1        0.1293
     17 N          63.0448   90.9950   12.0854 N.pl3   1  UNL1       -0.3425
     18 C          65.1730   91.2196   13.5584 C.ar    1  UNL1        0.0449
     19 H          67.9690   94.2011   10.5681 H       1  UNL1        0.1452
     20 H          66.5722   94.0537    9.6012 H       1  UNL1        0.1452
     21 H          62.5532   91.2080   11.2594 H       1  UNL1        0.1437
     22 H          62.6311   90.4215   12.7704 H       1  UNL1        0.1437
     23 C          67.4880   92.4952   16.0854 C.3     1  UNL1        0.0067
     24 C          67.3013   91.4442   15.0316 C.3     1  UNL1        0.0460
     25 C          64.6443   85.8698   14.1502 C.3     1  UNL1        0.0908
     26 C          63.9989   84.7114   13.4491 C.3     1  UNL1        0.0220
     27 C          62.8683   84.9492   12.4924 C.3     1  UNL1        0.0134
     28 C          62.7909   84.1684   11.2139 C.3     1  UNL1        0.1096
     29 C          63.5208   82.8643   11.0862 C.2     1  UNL1        0.3171
     30 O          64.9381   82.8430   10.5951 O.2     1  UNL1       -0.2501
     31 O          62.8337   81.5814   11.4495 O.3     1  UNL1       -0.4444
     32 C          62.4893   81.2944   12.8810 C.3     1  UNL1        0.2556
@<TRIPOS>BOND
     1    23    24    1
     2    24    11    1
     3    11    12   ar
     4    12    13   ar
     5    13    14    1
     6    13    15   ar
     7    15    16   ar
     8    16    17    1
     9    16    18   ar
    10    18     1    1
    11     1     2   ar
    12     2     3   ar
    13     3     4   ar
    14     4     5   ar
    15     5     6   ar
    16     5     7    1
    17     7    25    1
    18    25    26    1
    19    26    27    1
    20    27    28    1
    21    28    29    1
    22    29    30    2
    23    29    31    1
    24    31    32    1
    25     7     8    1
    26     8     9    1
    27     9    10    1
    28    18    11   ar
    29     6     1   ar
    30    10     4    1
    31    14    19    1
    32    14    20    1
    33    17    21    1
    34    17    22    1
@<TRIPOS>MOLECULE
*****
 32 34 0 0 0
SMALL
GASTEIGER

@<TRIPOS>ATOM
      1 C          64.5152   90.2889   14.6044 C.ar    1  UNL1        0.0050
      2 C          63.8441   90.8985   15.7993 C.ar    1  UNL1       -0.0001
      3 C          63.2237   90.0168   16.8422 C.ar    1  UNL1       -0.0030
      4 C          63.2744   88.5253   16.6900 C.ar    1  UNL1       -0.0088
      5 C          63.9455   87.9157   15.4951 C.ar    1  UNL1        0.0438
      6 C          64.5659   88.7975   14.4522 C.ar    1  UNL1        0.0143
      7 N          63.9962   86.4243   15.3430 N.pl3   1  UNL1       -0.3077
      8 C          63.3758   85.5425   16.3858 C.3     1  UNL1        0.0911
      9 C          62.7047   86.1522   17.5808 C.3     1  UNL1        0.0261
     10 C          62.6540   87.6436   17.7330 C.3     1  UNL1        0.0294
     11 C          66.5016   91.7490   13.7843 C.ar    1  UNL1        0.0645
     12 N          67.1220   92.6307   12.7415 N.ar    1  UNL1       -0.2183
     13 C          66.3765   92.9342   11.4757 C.ar    1  UNL1        0.2145
     14 N          66.9969   93.8159   10.4329 N.pl3   1  UNL1       -0.3274
     15 N          65.0105   92.3559   11.2528 N.ar    1  UNL1       -0.1995
     16 C          64.3901   91.4741   12.2957 C.ar    1  UNL1        0.1293
     17 N          63.0241   90.8958   12.0729 N.pl3   1  UNL1       -0.3425
     18 C          65.1356   91.1707   13.5614 C.ar    1  UNL1        0.0449
     19 H          67.8935   94.1955   10.5791 H       1  UNL1        0.1452
     20 H          66.5076   94.0151    9.6021 H       1  UNL1        0.1452
     21 H          62.5348   91.0950   11.2421 H       1  UNL1        0.1437
     22 H          62.6169   90.3171   12.7573 H       1  UNL1        0.1437
     23 C          67.4075   92.5061   16.0987 C.3     1  UNL1        0.0067
     24 C          67.2471   91.4455   15.0501 C.3     1  UNL1        0.0460
     25 C          64.6673   85.8147   14.1480 C.3     1  UNL1        0.0908
     26 C          64.0598   84.6197   13.4750 C.3     1  UNL1        0.0220
     27 C          62.6677   84.6976   12.9216 C.3     1  UNL1        0.0134
     28 C          62.4502   85.0973   11.4923 C.3     1  UNL1        0.1096
     29 C          61.9863   86.4855   11.1641 C.2     1  UNL1        0.3171
     30 O          62.6171   87.6666   11.8403 O.2     1  UNL1       -0.2501
     31 O          60.8917   86.6926   10.1596 O.3     1  UNL1       -0.4444
     32 C          60.0864   87.9581   10.1781 C.3     1  UNL1        0.2556
@<TRIPOS>BOND
     1    23    24    1
     2    24    11    1
     3    11    12   ar
     4    12    13   ar
     5    13    14    1
     6    13    15   ar
     7    15    16   ar
     8    16    17    1
     9    16    18   ar
    10    18     1    1
    11     1     2   ar
    12     2     3   ar
    13     3     4   ar
    14     4     5   ar
    15     5     6   ar
    16     5     7    1
    17     7    25    1
    18    25    26    1
    19    26    27    1
    20    27    28    1
    21    28    29    1
    22    29    30    2
    23    29    31    1
    24    31    32    1
    25     7     8    1
    26     8     9    1
    27     9    10    1
    28    18    11   ar
    29     6     1   ar
    30    10     4    1
    31    14    19    1
    32    14    20    1
    33    17    21    1
    34    17    22    1
@<TRIPOS>MOLECULE
*****
 32 34 0 0 0
SMALL
GASTEIGER

@<TRIPOS>ATOM
      1 C          64.6181   90.2933   14.5634 C.ar    1  UNL1        0.0050
      2 C          63.9214   90.9338   15.7272 C.ar    1  UNL1       -0.0001
      3 C          63.2564   90.0800   16.7657 C.ar    1  UNL1       -0.0030
      4 C          63.2880   88.5855   16.6404 C.ar    1  UNL1       -0.0088
      5 C          63.9846   87.9450   15.4767 C.ar    1  UNL1        0.0438
      6 C          64.6497   88.7989   14.4382 C.ar    1  UNL1        0.0143
      7 N          64.0162   86.4506   15.3515 N.pl3   1  UNL1       -0.3077
      8 C          63.3512   85.5967   16.3900 C.3     1  UNL1        0.0911
      9 C          62.6545   86.2372   17.5538 C.3     1  UNL1        0.0261
     10 C          62.6229   87.7316   17.6790 C.3     1  UNL1        0.0294
     11 C          64.5601   91.4822   12.2540 C.ar    1  UNL1        0.0645
     12 N          65.2251   92.3360   11.2155 N.ar    1  UNL1       -0.2183
     13 C          66.6132   92.8549   11.4477 C.ar    1  UNL1        0.2145
     14 N          67.2783   93.7088   10.4091 N.pl3   1  UNL1       -0.3274
     15 N          67.3363   92.5199   12.7185 N.ar    1  UNL1       -0.1995
     16 C          66.6712   91.6660   13.7571 C.ar    1  UNL1        0.1293
     17 N          67.3943   91.3310   15.0279 N.pl3   1  UNL1       -0.3425
     18 C          65.2831   91.1472   13.5248 C.ar    1  UNL1        0.0449
     19 H          66.8037   93.9286    9.5750 H       1  UNL1        0.1452
     20 H          68.1893   94.0493   10.5615 H       1  UNL1        0.1452
     21 H          68.3054   91.6716   15.1803 H       1  UNL1        0.1437
     22 H          66.9578   90.7706   15.7095 H       1  UNL1        0.1437
     23 C          62.7788   90.4531   10.6671 C.3     1  UNL1        0.0067
     24 C          63.1719   90.9633   12.0218 C.3     1  UNL1        0.0460
     25 C          64.7129   85.8100   14.1877 C.3     1  UNL1        0.0908
     26 C          64.0600   84.6761   13.4543 C.3     1  UNL1        0.0220
     27 C          62.9310   84.9481   12.5048 C.3     1  UNL1        0.0134
     28 C          62.7130   84.0514   11.3223 C.3     1  UNL1        0.1096
     29 C          63.5131   82.7907   11.1794 C.2     1  UNL1        0.3171
     30 O          64.8903   82.8395   10.5868 O.2     1  UNL1       -0.2501
     31 O          62.9361   81.4812   11.6291 O.3     1  UNL1       -0.4444
     32 C          62.2992   81.3675   12.9825 C.3     1  UNL1        0.2556
@<TRIPOS>BOND
     1    23    24    1
     2    24    11    1
     3    11    12   ar
     4    12    13   ar
     5    13    14    1
     6    13    15   ar
     7    15    16   ar
     8    16    17    1
     9    16    18   ar
    10    18     1    1
    11     1     2   ar
    12     2     3   ar
    13     3     4   ar
    14     4     5   ar
    15     5     6   ar
    16     5     7    1
    17     7    25    1
    18    25    26    1
    19    26    27    1
    20    27    28    1
    21    28    29    1
    22    29    30    2
    23    29    31    1
    24    31    32    1
    25     7     8    1
    26     8     9    1
    27     9    10    1
    28    18    11   ar
    29     6     1   ar
    30    10     4    1
    31    14    19    1
    32    14    20    1
    33    17    21    1
    34    17    22    1
@<TRIPOS>MOLECULE
*****
 32 34 0 0 0
SMALL
GASTEIGER

@<TRIPOS>ATOM
      1 C          63.1643   90.1845   12.2315 C.ar    1  UNL1        0.0050
      2 C          62.4245   90.9543   11.1780 C.ar    1  UNL1       -0.0001
      3 C          61.6322   90.2251   10.1337 C.ar    1  UNL1       -0.0030
      4 C          61.5798   88.7261   10.1430 C.ar    1  UNL1       -0.0088
      5 C          62.3195   87.9562   11.1965 C.ar    1  UNL1        0.0438
      6 C          63.1118   88.6854   12.2408 C.ar    1  UNL1        0.0143
      7 N          62.2671   86.4572   11.2058 N.pl3   1  UNL1       -0.3077
      8 C          61.4748   85.7280   10.1615 C.3     1  UNL1        0.0911
      9 C          60.7349   86.4978    9.1079 C.3     1  UNL1        0.0261
     10 C          60.7874   87.9969    9.0986 C.3     1  UNL1        0.0294
     11 C          65.0227   91.8858   12.8655 C.ar    1  UNL1        0.0645
     12 N          65.8150   92.6150   13.9097 N.ar    1  UNL1       -0.2183
     13 C          65.5413   92.3720   15.3644 C.ar    1  UNL1        0.2145
     14 N          66.3336   93.1012   16.4087 N.pl3   1  UNL1       -0.3274
     15 N          64.4753   91.3998   15.7748 N.ar    1  UNL1       -0.1995
     16 C          63.6829   90.6706   14.7305 C.ar    1  UNL1        0.1293
     17 N          62.6169   89.6985   15.1408 N.pl3   1  UNL1       -0.3425
     18 C          63.9566   90.9137   13.2758 C.ar    1  UNL1        0.0449
     19 H          67.0333   93.7393   16.1393 H       1  UNL1        0.1452
     20 H          66.1540   92.9417   17.3634 H       1  UNL1        0.1452
     21 H          62.4372   89.5390   16.0956 H       1  UNL1        0.1437
     22 H          62.0968   89.2199   14.4554 H       1  UNL1        0.1437
     23 C          65.6940   93.4967   10.9407 C.3     1  UNL1        0.0067
     24 C          65.2964   92.1288   11.4107 C.3     1  UNL1        0.0460
     25 C          63.0068   85.6873   12.2593 C.3     1  UNL1        0.0908
     26 C          62.8345   84.2008   12.3619 C.3     1  UNL1        0.0220
     27 C          63.0927   83.5040   13.6650 C.3     1  UNL1        0.0134
     28 C          62.3283   83.9020   14.8926 C.3     1  UNL1        0.1096
     29 C          62.8854   84.9424   15.8185 C.2     1  UNL1        0.3171
     30 O          64.3157   85.3748   15.6872 O.2     1  UNL1       -0.2501
     31 O          62.0122   85.5504   16.8758 O.3     1  UNL1       -0.4444
     32 C          62.5917   86.5248   17.8581 C.3     1  UNL1        0.2556
@<TRIPOS>BOND
     1    23    24    1
     2    24    11    1
     3    11    12   ar
     4    12    13   ar
     5    13    14    1
     6    13    15   ar
     7    15    16   ar
     8    16    17    1
     9    16    18   ar
    10    18     1    1
    11     1     2   ar
    12     2     3   ar
    13     3     4   ar
    14     4     5   ar
    15     5     6   ar
    16     5     7    1
    17     7    25    1
    18    25    26    1
    19    26    27    1
    20    27    28    1
    21    28    29    1
    22    29    30    2
    23    29    31    1
    24    31    32    1
    25     7     8    1
    26     8     9    1
    27     9    10    1
    28    18    11   ar
    29     6     1   ar
    30    10     4    1
    31    14    19    1
    32    14    20    1
    33    17    21    1
    34    17    22    1
@<TRIPOS>MOLECULE
*****
 32 34 0 0 0
SMALL
GASTEIGER

@<TRIPOS>ATOM
      1 C          64.5505   90.2637   14.5692 C.ar    1  UNL1        0.0050
      2 C          63.8536   90.8888   15.7412 C.ar    1  UNL1       -0.0001
      3 C          63.2077   90.0206   16.7799 C.ar    1  UNL1       -0.0030
      4 C          63.2587   88.5274   16.6467 C.ar    1  UNL1       -0.0088
      5 C          63.9555   87.9023   15.4747 C.ar    1  UNL1        0.0438
      6 C          64.6014   88.7705   14.4359 C.ar    1  UNL1        0.0143
      7 N          64.0065   86.4091   15.3414 N.pl3   1  UNL1       -0.3077
      8 C          63.3606   85.5410   16.3802 C.3     1  UNL1        0.0911
      9 C          62.6637   86.1660   17.5523 C.3     1  UNL1        0.0261
     10 C          62.6128   87.6592   17.6856 C.3     1  UNL1        0.0294
     11 C          64.4845   91.4141   12.2405 C.ar    1  UNL1        0.0645
     12 N          65.1303   92.2822   11.2017 N.ar    1  UNL1       -0.2183
     13 C          66.4882   92.8681   11.4526 C.ar    1  UNL1        0.2145
     14 N          67.1341   93.7362   10.4138 N.pl3   1  UNL1       -0.3274
     15 N          67.2002   92.5859   12.7424 N.ar    1  UNL1       -0.1995
     16 C          66.5542   91.7178   13.7812 C.ar    1  UNL1        0.1293
     17 N          67.2662   91.4356   15.0710 N.pl3   1  UNL1       -0.3425
     18 C          65.1964   91.1319   13.5303 C.ar    1  UNL1        0.0449
     19 H          66.6668   93.9214    9.5673 H       1  UNL1        0.1452
     20 H          68.0253   94.1208   10.5785 H       1  UNL1        0.1452
     21 H          68.1574   91.8201   15.2357 H       1  UNL1        0.1437
     22 H          66.8422   90.8658   15.7528 H       1  UNL1        0.1437
     23 C          62.6172   90.6897   10.5856 C.3     1  UNL1        0.0067
     24 C          63.1266   90.8281   11.9896 C.3     1  UNL1        0.0460
     25 C          64.7033   85.7841   14.1694 C.3     1  UNL1        0.0908
     26 C          64.0341   84.6860   13.3973 C.3     1  UNL1        0.0220
     27 C          62.6830   84.9142   12.7868 C.3     1  UNL1        0.0134
     28 C          62.5193   84.8866   11.2960 C.3     1  UNL1        0.1096
     29 C          61.7305   85.9611   10.6081 C.2     1  UNL1        0.3171
     30 O          60.8673   86.8885   11.4111 O.2     1  UNL1       -0.2501
     31 O          61.8050   86.1084    9.1172 O.3     1  UNL1       -0.4444
     32 C          62.8825   85.4042    8.3469 C.3     1  UNL1        0.2556
@<TRIPOS>BOND
     1    23    24    1
     2    24    11    1
     3    11    12   ar
     4    12    13   ar
     5    13    14    1
     6    13    15   ar
     7    15    16   ar
     8    16    17    1
     9    16    18   ar
    10    18     1    1
    11     1     2   ar
    12     2     3   ar
    13     3     4   ar
    14     4     5   ar
    15     5     6   ar
    16     5     7    1
    17     7    25    1
    18    25    26    1
    19    26    27    1
    20    27    28    1
    21    28    29    1
    22    29    30    2
    23    29    31    1
    24    31    32    1
    25     7     8    1
    26     8     9    1
    27     9    10    1
    28    18    11   ar
    29     6     1   ar
    30    10     4    1
    31    14    19    1
    32    14    20    1
    33    17    21    1
    34    17    22    1
@<TRIPOS>MOLECULE
*****
 32 34 0 0 0
SMALL
GASTEIGER

@<TRIPOS>ATOM
      1 C          63.1556   90.2416   12.2253 C.ar    1  UNL1        0.0050
      2 C          62.3486   91.0156   11.2256 C.ar    1  UNL1       -0.0001
      3 C          61.5312   90.2899   10.1984 C.ar    1  UNL1       -0.0030
      4 C          61.5209   88.7902   10.1709 C.ar    1  UNL1       -0.0088
      5 C          62.3280   88.0162   11.1706 C.ar    1  UNL1        0.0438
      6 C          63.1453   88.7419   12.1978 C.ar    1  UNL1        0.0143
      7 N          62.3177   86.5165   11.1431 N.pl3   1  UNL1       -0.3077
      8 C          61.5003   85.7908   10.1159 C.3     1  UNL1        0.0911
      9 C          60.6932   86.5648    9.1161 C.3     1  UNL1        0.0261
     10 C          60.7035   88.0645    9.1436 C.3     1  UNL1        0.0294
     11 C          65.0416   91.9269   12.8196 C.ar    1  UNL1        0.0645
     12 N          65.8590   92.6525   13.8468 N.ar    1  UNL1       -0.2183
     13 C          65.6079   92.4187   15.3071 C.ar    1  UNL1        0.2145
     14 N          66.4253   93.1444   16.3343 N.pl3   1  UNL1       -0.3274
     15 N          64.5393   91.4592   15.7401 N.ar    1  UNL1       -0.1995
     16 C          63.7219   90.7335   14.7128 C.ar    1  UNL1        0.1293
     17 N          62.6533   89.7739   15.1458 N.pl3   1  UNL1       -0.3425
     18 C          63.9731   90.9673   13.2526 C.ar    1  UNL1        0.0449
     19 H          67.1266   93.7742   16.0501 H       1  UNL1        0.1452
     20 H          66.2605   92.9909   17.2927 H       1  UNL1        0.1452
     21 H          62.4885   89.6205   16.1042 H       1  UNL1        0.1437
     22 H          62.1168   89.2977   14.4716 H       1  UNL1        0.1437
     23 C          66.5508   92.8463   10.9151 C.3     1  UNL1        0.0067
     24 C          65.2927   92.1607   11.3593 C.3     1  UNL1        0.0460
     25 C          63.1248   85.7425   12.1428 C.3     1  UNL1        0.0908
     26 C          62.4895   84.6247   12.9155 C.3     1  UNL1        0.0220
     27 C          63.2785   83.8919   13.9599 C.3     1  UNL1        0.0134
     28 C          64.0885   82.6879   13.5803 C.3     1  UNL1        0.1096
     29 C          63.9225   82.0694   12.2239 C.2     1  UNL1        0.3171
     30 O          64.7699   82.5367   11.0777 O.2     1  UNL1       -0.2501
     31 O          62.9091   80.9837   12.0136 O.3     1  UNL1       -0.4444
     32 C          62.3581   80.2339   13.1901 C.3     1  UNL1        0.2556
@<TRIPOS>BOND
     1    23    24    1
     2    24    11    1
     3    11    12   ar
     4    12    13   ar
     5    13    14    1
     6    13    15   ar
     7    15    16   ar
     8    16    17    1
     9    16    18   ar
    10    18     1    1
    11     1     2   ar
    12     2     3   ar
    13     3     4   ar
    14     4     5   ar
    15     5     6   ar
    16     5     7    1
    17     7    25    1
    18    25    26    1
    19    26    27    1
    20    27    28    1
    21    28    29    1
    22    29    30    2
    23    29    31    1
    24    31    32    1
    25     7     8    1
    26     8     9    1
    27     9    10    1
    28    18    11   ar
    29     6     1   ar
    30    10     4    1
    31    14    19    1
    32    14    20    1
    33    17    21    1
    34    17    22    1
@<TRIPOS>MOLECULE
*****
 32 34 0 0 0
SMALL
GASTEIGER

@<TRIPOS>ATOM
      1 C          63.3974   90.3525   12.1250 C.ar    1  UNL1        0.0050
      2 C          62.6657   91.1121   11.0584 C.ar    1  UNL1       -0.0001
      3 C          61.8023   90.3797   10.0745 C.ar    1  UNL1       -0.0030
      4 C          61.6706   88.8878   10.1571 C.ar    1  UNL1       -0.0088
      5 C          62.4022   88.1282   11.2237 C.ar    1  UNL1        0.0438
      6 C          63.2656   88.8606   12.2077 C.ar    1  UNL1        0.0143
      7 N          62.2705   86.6363   11.3063 N.pl3   1  UNL1       -0.3077
      8 C          61.4071   85.9040   10.3224 C.3     1  UNL1        0.0911
      9 C          60.6754   86.6636    9.2557 C.3     1  UNL1        0.0261
     10 C          60.8071   88.1555    9.1731 C.3     1  UNL1        0.0294
     11 C          64.0834   90.8532   14.5804 C.ar    1  UNL1        0.0645
     12 N          64.9467   91.5854   15.5644 N.ar    1  UNL1       -0.2183
     13 C          65.9876   92.5494   15.0771 C.ar    1  UNL1        0.2145
     14 N          66.8510   93.2816   16.0611 N.pl3   1  UNL1       -0.3274
     15 N          66.1651   92.7810   13.6057 N.ar    1  UNL1       -0.1995
     16 C          65.3016   92.0487   12.6217 C.ar    1  UNL1        0.1293
     17 N          65.4791   92.2803   11.1504 N.pl3   1  UNL1       -0.3425
     18 C          64.2608   91.0848   13.1090 C.ar    1  UNL1        0.0449
     19 H          66.7346   93.1296   17.0268 H       1  UNL1        0.1452
     20 H          67.5342   93.9143   15.7412 H       1  UNL1        0.1452
     21 H          66.1622   92.9130   10.8305 H       1  UNL1        0.1437
     22 H          64.9124   91.7997   10.5045 H       1  UNL1        0.1437
     23 C          63.1526   89.2979   16.4418 C.3     1  UNL1        0.0067
     24 C          63.0425   89.8892   15.0677 C.3     1  UNL1        0.0460
     25 C          63.0022   85.8767   12.3729 C.3     1  UNL1        0.0908
     26 C          62.7886   84.3995   12.5222 C.3     1  UNL1        0.0220
     27 C          63.8175   83.4372   12.0069 C.3     1  UNL1        0.0134
     28 C          64.2119   82.2481   12.8318 C.3     1  UNL1        0.1096
     29 C          63.6058   82.0420   14.1883 C.2     1  UNL1        0.3171
     30 O          64.1028   82.8354   15.3603 O.2     1  UNL1       -0.2501
     31 O          62.5026   81.0426   14.3729 O.3     1  UNL1       -0.4444
     32 C          62.2489   80.0029   13.3218 C.3     1  UNL1        0.2556
@<TRIPOS>BOND
     1    23    24    1
     2    24    11    1
     3    11    12   ar
     4    12    13   ar
     5    13    14    1
     6    13    15   ar
     7    15    16   ar
     8    16    17    1
     9    16    18   ar
    10    18     1    1
    11     1     2   ar
    12     2     3   ar
    13     3     4   ar
    14     4     5   ar
    15     5     6   ar
    16     5     7    1
    17     7    25    1
    18    25    26    1
    19    26    27    1
    20    27    28    1
    21    28    29    1
    22    29    30    2
    23    29    31    1
    24    31    32    1
    25     7     8    1
    26     8     9    1
    27     9    10    1
    28    18    11   ar
    29     6     1   ar
    30    10     4    1
    31    14    19    1
    32    14    20    1
    33    17    21    1
    34    17    22    1
@<TRIPOS>MOLECULE
*****
 32 34 0 0 0
SMALL
GASTEIGER

@<TRIPOS>ATOM
      1 C          63.5304   85.2005   13.6512 C.ar    1  UNL1        0.0050
      2 C          64.4152   85.7132   14.7486 C.ar    1  UNL1       -0.0001
      3 C          64.7070   87.1808   14.8526 C.ar    1  UNL1       -0.0030
      4 C          64.1141   88.1357   13.8593 C.ar    1  UNL1       -0.0088
      5 C          63.2294   87.6230   12.7619 C.ar    1  UNL1        0.0438
      6 C          62.9375   86.1554   12.6579 C.ar    1  UNL1        0.0143
      7 N          62.6365   88.5779   11.7686 N.pl3   1  UNL1       -0.3077
      8 C          62.9283   90.0455   11.8727 C.3     1  UNL1        0.0911
      9 C          63.8131   90.5583   12.9701 C.3     1  UNL1        0.0261
     10 C          64.4060   89.6034   13.9634 C.3     1  UNL1        0.0294
     11 C          63.6558   82.9700   12.3248 C.ar    1  UNL1        0.0645
     12 N          63.3639   81.5024   12.2207 N.ar    1  UNL1       -0.2183
     13 C          62.6547   80.7975   13.3389 C.ar    1  UNL1        0.2145
     14 N          62.3629   79.3299   13.2347 N.pl3   1  UNL1       -0.3274
     15 N          62.2374   81.5603   14.5612 N.ar    1  UNL1       -0.1995
     16 C          62.5293   83.0280   14.6653 C.ar    1  UNL1        0.1293
     17 N          62.1120   83.7908   15.8875 N.pl3   1  UNL1       -0.3425
     18 C          63.2385   83.7328   13.5471 C.ar    1  UNL1        0.0449
     19 H          62.6368   78.8292   12.4325 H       1  UNL1        0.1452
     20 H          61.8974   78.8673   13.9686 H       1  UNL1        0.1452
     21 H          61.6466   83.3282   16.6214 H       1  UNL1        0.1437
     22 H          62.3036   84.7541   15.9559 H       1  UNL1        0.1437
     23 C          63.9324   83.4546    9.7873 C.3     1  UNL1        0.0067
     24 C          64.3650   83.6749   11.2066 C.3     1  UNL1        0.0460
     25 C          61.7517   88.0651   10.6712 C.3     1  UNL1        0.0908
     26 C          62.3471   87.3161    9.5161 C.3     1  UNL1        0.0220
     27 C          61.6359   86.1232    8.9492 C.3     1  UNL1        0.0134
     28 C          60.7411   86.2808    7.7556 C.3     1  UNL1        0.1096
     29 C          59.5618   87.2055    7.8192 C.2     1  UNL1        0.3171
     30 O          58.1757   86.6459    7.9440 O.2     1  UNL1       -0.2501
     31 O          59.7686   88.6900    7.7581 O.3     1  UNL1       -0.4444
     32 C          59.3953   89.4488    6.5192 C.3     1  UNL1        0.2556
@<TRIPOS>BOND
     1    23    24    1
     2    24    11    1
     3    11    12   ar
     4    12    13   ar
     5    13    14    1
     6    13    15   ar
     7    15    16   ar
     8    16    17    1
     9    16    18   ar
    10    18     1    1
    11     1     2   ar
    12     2     3   ar
    13     3     4   ar
    14     4     5   ar
    15     5     6   ar
    16     5     7    1
    17     7    25    1
    18    25    26    1
    19    26    27    1
    20    27    28    1
    21    28    29    1
    22    29    30    2
    23    29    31    1
    24    31    32    1
    25     7     8    1
    26     8     9    1
    27     9    10    1
    28    18    11   ar
    29     6     1   ar
    30    10     4    1
    31    14    19    1
    32    14    20    1
    33    17    21    1
    34    17    22    1
@<TRIPOS>MOLECULE
*****
 32 34 0 0 0
SMALL
GASTEIGER

@<TRIPOS>ATOM
      1 C          62.0834   86.2289   10.6891 C.ar    1  UNL1        0.0050
      2 C          62.7366   85.9189    9.3749 C.ar    1  UNL1       -0.0001
      3 C          63.4042   84.5924    9.1637 C.ar    1  UNL1       -0.0030
      4 C          63.4186   83.5759   10.2667 C.ar    1  UNL1       -0.0088
      5 C          62.7654   83.8859   11.5809 C.ar    1  UNL1        0.0438
      6 C          62.0978   85.2124   11.7921 C.ar    1  UNL1        0.0143
      7 N          62.7799   82.8694   12.6838 N.pl3   1  UNL1       -0.3077
      8 C          63.4475   81.5430   12.4726 C.3     1  UNL1        0.0911
      9 C          64.1007   81.2329   11.1583 C.3     1  UNL1        0.0261
     10 C          64.0863   82.2494   10.0554 C.3     1  UNL1        0.0294
     11 C          60.1712   87.8988   10.1366 C.ar    1  UNL1        0.0645
     12 N          59.5035   89.2252   10.3479 N.ar    1  UNL1       -0.2183
     13 C          60.0804   90.2084   11.3229 C.ar    1  UNL1        0.2145
     14 N          59.4127   91.5349   11.5342 N.pl3   1  UNL1       -0.3274
     15 N          61.3249   89.8651   12.0867 N.ar    1  UNL1       -0.1995
     16 C          61.9926   88.5386   11.8754 C.ar    1  UNL1        0.1293
     17 N          63.2371   88.1952   12.6391 N.pl3   1  UNL1       -0.3425
     18 C          61.4157   87.5554   10.9004 C.ar    1  UNL1        0.0449
     19 H          58.5959   91.7602   11.0329 H       1  UNL1        0.1452
     20 H          59.7913   92.1802   12.1741 H       1  UNL1        0.1452
     21 H          63.6157   88.8405   13.2791 H       1  UNL1        0.1437
     22 H          63.6753   87.3246   12.5005 H       1  UNL1        0.1437
     23 C          59.3247   87.3331    7.7463 C.3     1  UNL1        0.0067
     24 C          59.5944   86.9155    9.1616 C.3     1  UNL1        0.0460
     25 C          62.1267   83.1794   13.9980 C.3     1  UNL1        0.0908
     26 C          62.9692   83.4930   15.1988 C.3     1  UNL1        0.0220
     27 C          62.6453   84.6834   16.0522 C.3     1  UNL1        0.0134
     28 C          63.6749   85.7521   16.2705 C.3     1  UNL1        0.1096
     29 C          63.2544   87.1152   16.7342 C.2     1  UNL1        0.3171
     30 O          62.7679   87.3124   18.1394 O.2     1  UNL1       -0.2501
     31 O          63.3203   88.2812   15.7929 O.3     1  UNL1       -0.4444
     32 C          63.2426   89.6810   16.3262 C.3     1  UNL1        0.2556
@<TRIPOS>BOND
     1    23    24    1
     2    24    11    1
     3    11    12   ar
     4    12    13   ar
     5    13    14    1
     6    13    15   ar
     7    15    16   ar
     8    16    17    1
     9    16    18   ar
    10    18     1    1
    11     1     2   ar
    12     2     3   ar
    13     3     4   ar
    14     4     5   ar
    15     5     6   ar
    16     5     7    1
    17     7    25    1
    18    25    26    1
    19    26    27    1
    20    27    28    1
    21    28    29    1
    22    29    30    2
    23    29    31    1
    24    31    32    1
    25     7     8    1
    26     8     9    1
    27     9    10    1
    28    18    11   ar
    29     6     1   ar
    30    10     4    1
    31    14    19    1
    32    14    20    1
    33    17    21    1
    34    17    22    1
