@<TRIPOS>MOLECULE
*****
 24 26 0 0 0
SMALL
GASTEIGER

@<TRIPOS>ATOM
      1 C          65.1229   93.2395   10.7318 C.3     1  UNL1        0.0952
      2 C          64.1499   92.3559   10.0091 C.3     1  UNL1        0.0245
      3 C          63.5216   91.1937   10.7194 C.3     1  UNL1        0.0067
      4 C          63.8664   90.9152   12.1524 C.3     1  UNL1        0.0263
      5 C          64.8394   91.7988   12.8751 C.ar    1  UNL1       -0.0216
      6 C          65.1842   91.5203   14.3082 C.ar    1  UNL1        0.0150
      7 C          66.1572   92.4040   15.0308 C.ar    1  UNL1        0.0985
      8 N          66.7855   93.5662   14.3205 N.ar    1  UNL1       -0.2426
      9 C          66.4407   93.8447   12.8875 C.ar    1  UNL1        0.0959
     10 C          65.4677   92.9610   12.1648 C.ar    1  UNL1        0.0107
     11 C          64.5559   90.3581   15.0185 C.ar    1  UNL1        0.0012
     12 C          64.8067   88.9600   14.5366 C.ar    1  UNL1        0.0007
     13 C          64.1784   87.7978   15.2469 C.ar    1  UNL1        0.0103
     14 C          63.2993   88.0337   16.4391 C.ar    1  UNL1        0.0684
     15 C          63.0484   89.4319   16.9211 C.ar    1  UNL1        0.0103
     16 C          63.6767   90.5941   16.2108 C.ar    1  UNL1        0.0007
     17 C          62.6710   86.8715   17.1495 C.1     1  UNL1        0.1004
     18 N          62.0428   85.7093   17.8598 N.1     1  UNL1       -0.1908
     19 C          67.0696   94.2323    9.3265 C.2     1  UNL1        0.2226
     20 O          67.7598   92.9005    9.3419 O.2     1  UNL1       -0.2751
     21 N          65.7512   94.4017   10.0214 N.am    1  UNL1       -0.3022
     22 H          65.2982   95.2758   10.0113 H       1  UNL1        0.1497
     23 C          67.2834   96.7951    8.9574 C.3     1  UNL1        0.0101
     24 C          67.6979   95.3945    8.6162 C.3     1  UNL1        0.0851
@<TRIPOS>BOND
     1    23    24    1
     2    24    19    1
     3    19    20    2
     4    19    21   am
     5     1    21    1
     6     1     2    1
     7     2     3    1
     8     3     4    1
     9     4     5    1
    10     5     6   ar
    11     6    11    1
    12    11    12   ar
    13    12    13   ar
    14    13    14   ar
    15    14    17    1
    16    17    18    3
    17    14    15   ar
    18    15    16   ar
    19     6     7   ar
    20     7     8   ar
    21     8     9   ar
    22     9    10   ar
    23    10     1    1
    24    10     5   ar
    25    16    11   ar
    26    21    22    1
@<TRIPOS>MOLECULE
*****
 24 26 0 0 0
SMALL
GASTEIGER

@<TRIPOS>ATOM
      1 C          66.0431   92.7231   13.2331 C.3     1  UNL1        0.0952
      2 C          66.1576   93.2649   11.8391 C.3     1  UNL1        0.0245
      3 C          65.2641   92.7399   10.7547 C.3     1  UNL1        0.0067
      4 C          64.2561   91.6731   11.0642 C.3     1  UNL1        0.0263
      5 C          64.1417   91.1313   12.4583 C.ar    1  UNL1       -0.0216
      6 C          63.1336   90.0644   12.7679 C.ar    1  UNL1        0.0150
      7 C          63.0192   89.5226   14.1619 C.ar    1  UNL1        0.0985
      8 N          63.9127   90.0476   15.2463 N.ar    1  UNL1       -0.2426
      9 C          64.9206   91.1144   14.9368 C.ar    1  UNL1        0.0959
     10 C          65.0352   91.6563   13.5427 C.ar    1  UNL1        0.0107
     11 C          62.2401   89.5394   11.6834 C.ar    1  UNL1        0.0012
     12 C          62.5447   88.2228   11.0325 C.ar    1  UNL1        0.0007
     13 C          61.6512   87.6978    9.9481 C.ar    1  UNL1        0.0103
     14 C          60.4531   88.4894    9.5146 C.ar    1  UNL1        0.0684
     15 C          60.1485   89.8061   10.1655 C.ar    1  UNL1        0.0103
     16 C          61.0420   90.3311   11.2499 C.ar    1  UNL1        0.0007
     17 C          59.5596   87.9644    8.4301 C.1     1  UNL1        0.1004
     18 N          58.6661   87.4394    7.3457 N.1     1  UNL1       -0.1908
     19 C          68.3400   92.7347   14.4472 C.2     1  UNL1        0.2226
     20 O          68.8500   91.6962   13.4924 O.2     1  UNL1       -0.2751
     21 N          66.9366   93.2481   14.3176 N.am    1  UNL1       -0.3022
     22 H          66.6020   93.9297   14.9442 H       1  UNL1        0.1497
     23 C          68.9944   94.6250   16.1051 C.3     1  UNL1        0.0101
     24 C          69.2335   93.2597   15.5317 C.3     1  UNL1        0.0851
@<TRIPOS>BOND
     1    23    24    1
     2    24    19    1
     3    19    20    2
     4    19    21   am
     5     1    21    1
     6     1     2    1
     7     2     3    1
     8     3     4    1
     9     4     5    1
    10     5     6   ar
    11     6    11    1
    12    11    12   ar
    13    12    13   ar
    14    13    14   ar
    15    14    17    1
    16    17    18    3
    17    14    15   ar
    18    15    16   ar
    19     6     7   ar
    20     7     8   ar
    21     8     9   ar
    22     9    10   ar
    23    10     1    1
    24    10     5   ar
    25    16    11   ar
    26    21    22    1
@<TRIPOS>MOLECULE
*****
 24 26 0 0 0
SMALL
GASTEIGER

@<TRIPOS>ATOM
      1 C          66.1102   93.8837   11.9030 C.3     1  UNL1        0.0952
      2 C          66.7702   94.1938   13.2137 C.3     1  UNL1        0.0245
      3 C          66.5122   93.3234   14.4078 C.3     1  UNL1        0.0067
      4 C          65.5943   92.1429   14.2912 C.3     1  UNL1        0.0263
      5 C          64.9343   91.8327   12.9804 C.ar    1  UNL1       -0.0216
      6 C          64.0163   90.6521   12.8637 C.ar    1  UNL1        0.0150
      7 C          63.3563   90.3420   11.5529 C.ar    1  UNL1        0.0985
      8 N          63.6142   91.2124   10.3588 N.ar    1  UNL1       -0.2426
      9 C          64.5322   92.3929   10.4755 C.ar    1  UNL1        0.0959
     10 C          65.1922   92.7031   11.7863 C.ar    1  UNL1        0.0107
     11 C          63.7583   89.7818   14.0578 C.ar    1  UNL1        0.0012
     12 C          63.0976   90.3561   15.2758 C.ar    1  UNL1        0.0007
     13 C          62.8397   89.4857   16.4699 C.ar    1  UNL1        0.0103
     14 C          63.2424   88.0410   16.4460 C.ar    1  UNL1        0.0684
     15 C          63.9032   87.4666   15.2280 C.ar    1  UNL1        0.0103
     16 C          64.1611   88.3370   14.0339 C.ar    1  UNL1        0.0007
     17 C          62.9845   87.1706   17.6402 C.1     1  UNL1        0.1004
     18 N          62.7266   86.3002   18.8343 N.1     1  UNL1       -0.1908
     19 C          67.4713   94.4084    9.7531 C.2     1  UNL1        0.2226
     20 O          68.3166   93.1923    9.9914 O.2     1  UNL1       -0.2751
     21 N          66.3681   94.7540   10.7088 N.am    1  UNL1       -0.3022
     22 H          65.8133   95.5522   10.5524 H       1  UNL1        0.1497
     23 C          67.2565   96.7024    8.5524 C.3     1  UNL1        0.0101
     24 C          67.7292   95.2788    8.5590 C.3     1  UNL1        0.0851
@<TRIPOS>BOND
     1    23    24    1
     2    24    19    1
     3    19    20    2
     4    19    21   am
     5     1    21    1
     6     1     2    1
     7     2     3    1
     8     3     4    1
     9     4     5    1
    10     5     6   ar
    11     6    11    1
    12    11    12   ar
    13    12    13   ar
    14    13    14   ar
    15    14    17    1
    16    17    18    3
    17    14    15   ar
    18    15    16   ar
    19     6     7   ar
    20     7     8   ar
    21     8     9   ar
    22     9    10   ar
    23    10     1    1
    24    10     5   ar
    25    16    11   ar
    26    21    22    1
@<TRIPOS>MOLECULE
*****
 24 26 0 0 0
SMALL
GASTEIGER

@<TRIPOS>ATOM
      1 C          63.2024   84.1582   13.8163 C.3     1  UNL1        0.0952
      2 C          64.1639   84.3005   14.9587 C.3     1  UNL1        0.0245
      3 C          64.7943   85.6307   15.2472 C.3     1  UNL1        0.0067
      4 C          64.4630   86.8186   14.3933 C.3     1  UNL1        0.0263
      5 C          63.5015   86.6763   13.2510 C.ar    1  UNL1       -0.0216
      6 C          63.1702   87.8642   12.3970 C.ar    1  UNL1        0.0150
      7 C          62.2086   87.7219   11.2547 C.ar    1  UNL1        0.0985
      8 N          61.5782   86.3917   10.9662 N.ar    1  UNL1       -0.2426
      9 C          61.9095   85.2038   11.8200 C.ar    1  UNL1        0.0959
     10 C          62.8711   85.3461   12.9625 C.ar    1  UNL1        0.0107
     11 C          63.8005   89.1944   12.6855 C.ar    1  UNL1        0.0012
     12 C          63.7639   90.2815   11.6526 C.ar    1  UNL1        0.0007
     13 C          64.3943   91.6117   11.9411 C.ar    1  UNL1        0.0103
     14 C          65.0612   91.8549   13.2625 C.ar    1  UNL1        0.0684
     15 C          65.0978   90.7677   14.2955 C.ar    1  UNL1        0.0103
     16 C          64.4674   89.4375   14.0070 C.ar    1  UNL1        0.0007
     17 C          65.6915   93.1851   13.5510 C.1     1  UNL1        0.1004
     18 N          66.3219   94.5153   13.8395 N.1     1  UNL1       -0.1908
     19 C          63.2852   81.8320   12.6623 C.2     1  UNL1        0.2226
     20 O          64.6289   82.1662   12.0851 O.2     1  UNL1       -0.2751
     21 N          62.5720   82.8280   13.5279 N.am    1  UNL1       -0.3022
     22 H          61.6902   82.6087   13.9066 H       1  UNL1        0.1497
     23 C          62.0097   79.7217   13.4807 C.3     1  UNL1        0.0101
     24 C          62.6549   80.5018   12.3738 C.3     1  UNL1        0.0851
@<TRIPOS>BOND
     1    23    24    1
     2    24    19    1
     3    19    20    2
     4    19    21   am
     5     1    21    1
     6     1     2    1
     7     2     3    1
     8     3     4    1
     9     4     5    1
    10     5     6   ar
    11     6    11    1
    12    11    12   ar
    13    12    13   ar
    14    13    14   ar
    15    14    17    1
    16    17    18    3
    17    14    15   ar
    18    15    16   ar
    19     6     7   ar
    20     7     8   ar
    21     8     9   ar
    22     9    10   ar
    23    10     1    1
    24    10     5   ar
    25    16    11   ar
    26    21    22    1
@<TRIPOS>MOLECULE
*****
 24 26 0 0 0
SMALL
GASTEIGER

@<TRIPOS>ATOM
      1 C          64.1544   90.2747   13.2211 C.3     1  UNL1        0.0952
      2 C          64.7184   89.8028   14.5284 C.3     1  UNL1        0.0245
      3 C          64.6263   88.3540   14.9057 C.3     1  UNL1        0.0067
      4 C          63.9703   87.3770   13.9756 C.3     1  UNL1        0.0263
      5 C          63.4063   87.8489   12.6683 C.ar    1  UNL1       -0.0216
      6 C          62.7502   86.8719   11.7381 C.ar    1  UNL1        0.0150
      7 C          62.1862   87.3438   10.4308 C.ar    1  UNL1        0.0985
      8 N          62.2782   88.7927   10.0535 N.ar    1  UNL1       -0.2426
      9 C          62.9343   89.7696   10.9836 C.ar    1  UNL1        0.0959
     10 C          63.4983   89.2977   12.2910 C.ar    1  UNL1        0.0107
     11 C          62.6581   85.4230   12.1154 C.ar    1  UNL1        0.0012
     12 C          62.7953   84.3637   11.0624 C.ar    1  UNL1        0.0007
     13 C          62.7032   82.9148   11.4396 C.ar    1  UNL1        0.0103
     14 C          62.4740   82.5253   12.8699 C.ar    1  UNL1        0.0684
     15 C          62.3368   83.5847   13.9230 C.ar    1  UNL1        0.0103
     16 C          62.4289   85.0336   13.5457 C.ar    1  UNL1        0.0007
     17 C          62.3820   81.0765   13.2472 C.1     1  UNL1        0.1004
     18 N          62.2899   79.6276   13.6244 N.1     1  UNL1       -0.1908
     19 C          65.5883   92.3818   12.7171 C.2     1  UNL1        0.2226
     20 O          66.8382   91.5911   12.9676 O.2     1  UNL1       -0.2751
     21 N          64.2464   91.7236   12.8438 N.am    1  UNL1       -0.3022
     22 H          63.4261   92.2425   12.6794 H       1  UNL1        0.1497
     23 C          65.7731   94.2252   10.8955 C.3     1  UNL1        0.0101
     24 C          65.6803   93.8306   12.3398 C.3     1  UNL1        0.0851
@<TRIPOS>BOND
     1    23    24    1
     2    24    19    1
     3    19    20    2
     4    19    21   am
     5     1    21    1
     6     1     2    1
     7     2     3    1
     8     3     4    1
     9     4     5    1
    10     5     6   ar
    11     6    11    1
    12    11    12   ar
    13    12    13   ar
    14    13    14   ar
    15    14    17    1
    16    17    18    3
    17    14    15   ar
    18    15    16   ar
    19     6     7   ar
    20     7     8   ar
    21     8     9   ar
    22     9    10   ar
    23    10     1    1
    24    10     5   ar
    25    16    11   ar
    26    21    22    1
@<TRIPOS>MOLECULE
*****
 24 26 0 0 0
SMALL
GASTEIGER

@<TRIPOS>ATOM
      1 C          63.4039   90.4162   12.7823 C.3     1  UNL1        0.0952
      2 C          63.1221   91.3067   11.6087 C.3     1  UNL1        0.0245
      3 C          62.7403   90.7079   10.2874 C.3     1  UNL1        0.0067
      4 C          62.6404   89.2185   10.1399 C.3     1  UNL1        0.0263
      5 C          62.9222   88.3280   11.3136 C.ar    1  UNL1       -0.0216
      6 C          62.8222   86.8386   11.1661 C.ar    1  UNL1        0.0150
      7 C          63.1040   85.9481   12.3397 C.ar    1  UNL1        0.0985
      8 N          63.4858   86.5469   13.6610 N.ar    1  UNL1       -0.2426
      9 C          63.5857   88.0363   13.8085 C.ar    1  UNL1        0.0959
     10 C          63.3039   88.9269   12.6348 C.ar    1  UNL1        0.0107
     11 C          62.4404   86.2397    9.8448 C.ar    1  UNL1        0.0012
     12 C          63.4011   85.3423    9.1226 C.ar    1  UNL1        0.0007
     13 C          63.0193   84.7434    7.8013 C.ar    1  UNL1        0.0103
     14 C          61.6769   85.0421    7.2024 C.ar    1  UNL1        0.0684
     15 C          60.7162   85.9396    7.9247 C.ar    1  UNL1        0.0103
     16 C          61.0980   86.5384    9.2459 C.ar    1  UNL1        0.0007
     17 C          61.2951   84.4432    5.8812 C.1     1  UNL1        0.1004
     18 N          60.9134   83.8444    4.5599 N.1     1  UNL1       -0.1908
     19 C          65.1564   91.5927   14.2972 C.2     1  UNL1        0.2226
     20 O          66.1454   91.5715   13.1696 O.2     1  UNL1       -0.2751
     21 N          63.7857   91.0151   14.1036 N.am    1  UNL1       -0.3022
     22 H          63.1366   91.0290   14.8437 H       1  UNL1        0.1497
     23 C          66.9846   92.3942   15.9601 C.3     1  UNL1        0.0101
     24 C          65.5381   92.1915   15.6184 C.3     1  UNL1        0.0851
@<TRIPOS>BOND
     1    23    24    1
     2    24    19    1
     3    19    20    2
     4    19    21   am
     5     1    21    1
     6     1     2    1
     7     2     3    1
     8     3     4    1
     9     4     5    1
    10     5     6   ar
    11     6    11    1
    12    11    12   ar
    13    12    13   ar
    14    13    14   ar
    15    14    17    1
    16    17    18    3
    17    14    15   ar
    18    15    16   ar
    19     6     7   ar
    20     7     8   ar
    21     8     9   ar
    22     9    10   ar
    23    10     1    1
    24    10     5   ar
    25    16    11   ar
    26    21    22    1
@<TRIPOS>MOLECULE
*****
 24 26 0 0 0
SMALL
GASTEIGER

@<TRIPOS>ATOM
      1 C          62.0928   89.1934   10.7119 C.3     1  UNL1        0.0952
      2 C          62.2321   90.5013    9.9908 C.3     1  UNL1        0.0245
      3 C          63.1542   91.5574   10.5241 C.3     1  UNL1        0.0067
      4 C          63.9370   91.3056   11.7786 C.3     1  UNL1        0.0263
      5 C          63.7978   89.9977   12.4997 C.ar    1  UNL1       -0.0216
      6 C          64.5807   89.7459   13.7542 C.ar    1  UNL1        0.0150
      7 C          64.4414   88.4380   14.4753 C.ar    1  UNL1        0.0985
      8 N          63.5193   87.3820   13.9420 N.ar    1  UNL1       -0.2426
      9 C          62.7365   87.6337   12.6876 C.ar    1  UNL1        0.0959
     10 C          62.8757   88.9416   11.9664 C.ar    1  UNL1        0.0107
     11 C          65.5028   90.8020   14.2875 C.ar    1  UNL1        0.0012
     12 C          65.1332   91.5650   15.5249 C.ar    1  UNL1        0.0007
     13 C          66.0553   92.6211   16.0583 C.ar    1  UNL1        0.0103
     14 C          67.3470   92.9141   15.3542 C.ar    1  UNL1        0.0684
     15 C          67.7165   92.1511   14.1167 C.ar    1  UNL1        0.0103
     16 C          66.7944   91.0950   13.5834 C.ar    1  UNL1        0.0007
     17 C          68.2691   93.9702   15.8875 C.1     1  UNL1        0.1004
     18 N          69.1912   95.0263   16.4208 N.1     1  UNL1       -0.1908
     19 C          61.7093   87.0422    9.3065 C.2     1  UNL1        0.2226
     20 O          63.1701   87.0032    8.9677 O.2     1  UNL1       -0.2751
     21 N          61.1707   88.1373   10.1786 N.am    1  UNL1       -0.3022
     22 H          60.2120   88.1630   10.4010 H       1  UNL1        0.1497
     23 C          59.7019   86.3568    7.8063 C.3     1  UNL1        0.0101
     24 C          60.7872   85.9862    8.7732 C.3     1  UNL1        0.0851
@<TRIPOS>BOND
     1    23    24    1
     2    24    19    1
     3    19    20    2
     4    19    21   am
     5     1    21    1
     6     1     2    1
     7     2     3    1
     8     3     4    1
     9     4     5    1
    10     5     6   ar
    11     6    11    1
    12    11    12   ar
    13    12    13   ar
    14    13    14   ar
    15    14    17    1
    16    17    18    3
    17    14    15   ar
    18    15    16   ar
    19     6     7   ar
    20     7     8   ar
    21     8     9   ar
    22     9    10   ar
    23    10     1    1
    24    10     5   ar
    25    16    11   ar
    26    21    22    1
@<TRIPOS>MOLECULE
*****
 24 26 0 0 0
SMALL
GASTEIGER

@<TRIPOS>ATOM
      1 C          63.5422   88.8018   13.2902 C.3     1  UNL1        0.0952
      2 C          62.7484   88.9471   12.0258 C.3     1  UNL1        0.0245
      3 C          62.4074   87.7349   11.2108 C.3     1  UNL1        0.0067
      4 C          62.8603   86.3774   11.6601 C.3     1  UNL1        0.0263
      5 C          63.6541   86.2320   12.9244 C.ar    1  UNL1       -0.0216
      6 C          64.1070   84.8744   13.3738 C.ar    1  UNL1        0.0150
      7 C          64.9008   84.7291   14.6382 C.ar    1  UNL1        0.0985
      8 N          65.2418   85.9413   15.4532 N.ar    1  UNL1       -0.2426
      9 C          64.7889   87.2988   15.0039 C.ar    1  UNL1        0.0959
     10 C          63.9950   87.4442   13.7395 C.ar    1  UNL1        0.0107
     11 C          63.7660   83.6622   12.5588 C.ar    1  UNL1        0.0012
     12 C          62.7815   82.6590   13.0824 C.ar    1  UNL1        0.0007
     13 C          62.4406   81.4468   12.2673 C.ar    1  UNL1        0.0103
     14 C          63.0841   81.2378   10.9287 C.ar    1  UNL1        0.0684
     15 C          64.0687   82.2411   10.4050 C.ar    1  UNL1        0.0103
     16 C          64.4096   83.4533   11.2200 C.ar    1  UNL1        0.0007
     17 C          62.7431   80.0256   10.1136 C.1     1  UNL1        0.1004
     18 N          62.4022   78.8134    9.2986 N.1     1  UNL1       -0.1908
     19 C          63.2568   90.2115   15.4538 C.2     1  UNL1        0.2226
     20 O          62.2893   89.1968   15.9873 O.2     1  UNL1       -0.2751
     21 N          63.8831   90.0140   14.1052 N.am    1  UNL1       -0.3022
     22 H          64.5181   90.6799   13.7551 H       1  UNL1        0.1497
     23 C          64.9559   92.0495   16.1503 C.3     1  UNL1        0.0101
     24 C          63.5977   91.4237   16.2688 C.3     1  UNL1        0.0851
@<TRIPOS>BOND
     1    23    24    1
     2    24    19    1
     3    19    20    2
     4    19    21   am
     5     1    21    1
     6     1     2    1
     7     2     3    1
     8     3     4    1
     9     4     5    1
    10     5     6   ar
    11     6    11    1
    12    11    12   ar
    13    12    13   ar
    14    13    14   ar
    15    14    17    1
    16    17    18    3
    17    14    15   ar
    18    15    16   ar
    19     6     7   ar
    20     7     8   ar
    21     8     9   ar
    22     9    10   ar
    23    10     1    1
    24    10     5   ar
    25    16    11   ar
    26    21    22    1
@<TRIPOS>MOLECULE
*****
 24 26 0 0 0
SMALL
GASTEIGER

@<TRIPOS>ATOM
      1 C          63.4993   91.0295   11.4641 C.3     1  UNL1        0.0952
      2 C          62.7725   90.4953   10.2656 C.3     1  UNL1        0.0245
      3 C          62.3990   89.0441   10.2003 C.3     1  UNL1        0.0067
      4 C          62.7523   88.1269   11.3333 C.3     1  UNL1        0.0263
      5 C          63.4791   88.6610   12.5318 C.ar    1  UNL1       -0.0216
      6 C          63.8325   87.7439   13.6650 C.ar    1  UNL1        0.0150
      7 C          64.5593   88.2780   14.8635 C.ar    1  UNL1        0.0985
      8 N          64.9328   89.7293   14.9289 N.ar    1  UNL1       -0.2426
      9 C          64.5795   90.6464   13.7958 C.ar    1  UNL1        0.0959
     10 C          63.8526   90.1123   12.5972 C.ar    1  UNL1        0.0107
     11 C          63.4589   86.2926   13.5996 C.ar    1  UNL1        0.0012
     12 C          63.0225   85.6884   12.2980 C.ar    1  UNL1        0.0007
     13 C          62.6490   84.2371   12.2326 C.ar    1  UNL1        0.0103
     14 C          62.7119   83.3900   13.4689 C.ar    1  UNL1        0.0684
     15 C          63.1484   83.9942   14.7706 C.ar    1  UNL1        0.0103
     16 C          63.5219   85.4455   14.8360 C.ar    1  UNL1        0.0007
     17 C          62.3384   81.9387   13.4035 C.1     1  UNL1        0.1004
     18 N          61.9649   80.4875   13.3381 N.1     1  UNL1       -0.1908
     19 C          65.2161   92.9324   11.0380 C.2     1  UNL1        0.2226
     20 O          66.1859   91.9327   10.4811 O.2     1  UNL1       -0.2751
     21 N          63.8728   92.4807   11.5295 N.am    1  UNL1       -0.3022
     22 H          63.2363   93.1369   11.8950 H       1  UNL1        0.1497
     23 C          66.6876   94.9155   10.2306 C.3     1  UNL1        0.0101
     24 C          65.5896   94.3836   11.1034 C.3     1  UNL1        0.0851
@<TRIPOS>BOND
     1    23    24    1
     2    24    19    1
     3    19    20    2
     4    19    21   am
     5     1    21    1
     6     1     2    1
     7     2     3    1
     8     3     4    1
     9     4     5    1
    10     5     6   ar
    11     6    11    1
    12    11    12   ar
    13    12    13   ar
    14    13    14   ar
    15    14    17    1
    16    17    18    3
    17    14    15   ar
    18    15    16   ar
    19     6     7   ar
    20     7     8   ar
    21     8     9   ar
    22     9    10   ar
    23    10     1    1
    24    10     5   ar
    25    16    11   ar
    26    21    22    1
