@<TRIPOS>MOLECULE
*****
 29 31 0 0 0
SMALL
GASTEIGER

@<TRIPOS>ATOM
      1 C          64.6712   91.8116   12.1223 C.ar    1  UNL1       -0.0090
      2 C          64.1809   91.9930   10.7164 C.ar    1  UNL1       -0.0017
      3 C          63.1916   91.0261   10.1364 C.ar    1  UNL1        0.0199
      4 C          62.6927   89.8777   10.9624 C.ar    1  UNL1        0.1264
      5 C          63.1830   89.6962   12.3683 C.ar    1  UNL1        0.0342
      6 C          64.1723   90.6632   12.9483 C.ar    1  UNL1        0.0419
      7 S          61.7034   88.9107   10.3824 S.O2    1  UNL1        0.0736
      8 O          61.5390   89.7977    9.1840 O.2     1  UNL1       -0.1499
      9 O          61.8678   88.0237   11.5808 O.2     1  UNL1       -0.1499
     10 N          60.7141   87.9438    9.8024 N.pl3   1  UNL1       -0.2145
     11 H          59.7588   88.0230   10.0267 H       1  UNL1        0.1737
     12 C          61.1804   86.8561    8.8808 C.ar    1  UNL1        0.0709
     13 C          62.5596   86.2858    9.0309 C.ar    1  UNL1        0.0164
     14 C          63.0259   85.1981    8.1091 C.ar    1  UNL1        0.0013
     15 C          62.1129   84.6807    7.0373 C.ar    1  UNL1        0.0006
     16 C          60.7337   85.2510    6.8872 C.ar    1  UNL1        0.0080
     17 C          60.2674   86.3387    7.8089 C.ar    1  UNL1        0.0491
     18 BR         58.8882   86.9090    7.6588 Br      1  UNL1       -0.0477
     19 C          66.1385   93.9426   11.8860 C.3     1  UNL1        0.0051
     20 C          65.6605   92.7785   12.7023 C.3     1  UNL1        0.0276
     21 N          64.6626   90.4817   14.3542 N.pl3   1  UNL1       -0.3342
     22 H          65.3127   91.1157   14.7346 H       1  UNL1        0.1468
     23 C          64.1624   89.3342   15.1807 C.3     1  UNL1        0.0718
     24 C          64.4558   87.9241   14.7617 C.3     1  UNL1        0.0368
     25 C          63.9556   86.7766   15.5882 C.3     1  UNL1        0.0738
     26 N          63.1620   87.0393   16.8337 N.3     1  UNL1       -0.2714
     27 C          62.6618   85.8918   17.6602 C.3     1  UNL1        0.0896
     28 C          62.8686   88.4493   17.2527 C.3     1  UNL1        0.0738
     29 C          63.3688   89.5969   16.4262 C.3     1  UNL1        0.0368
@<TRIPOS>BOND
     1    19    20    1
     2    20     1    1
     3     1     2   ar
     4     2     3   ar
     5     3     4   ar
     6     4     7    1
     7     7     8    2
     8     7     9    2
     9     7    10    1
    10    10    12    1
    11    12    13   ar
    12    13    14   ar
    13    14    15   ar
    14    15    16   ar
    15    16    17   ar
    16    17    18    1
    17     4     5   ar
    18     5     6   ar
    19     6    21    1
    20    21    23    1
    21    23    24    1
    22    24    25    1
    23    25    26    1
    24    26    27    1
    25    26    28    1
    26    28    29    1
    27     6     1   ar
    28    29    23    1
    29    17    12   ar
    30    10    11    1
    31    21    22    1
@<TRIPOS>MOLECULE
*****
 29 31 0 0 0
SMALL
GASTEIGER

@<TRIPOS>ATOM
      1 C          60.8697   88.2664    9.3601 C.ar    1  UNL1       -0.0090
      2 C          60.8973   86.8305    8.9274 C.ar    1  UNL1       -0.0017
      3 C          61.6369   85.8144    9.7464 C.ar    1  UNL1        0.0199
      4 C          62.3488   86.2343   10.9981 C.ar    1  UNL1        0.1264
      5 C          62.3212   87.6702   11.4308 C.ar    1  UNL1        0.0342
      6 C          61.5817   88.6863   10.6118 C.ar    1  UNL1        0.0419
      7 S          63.0884   85.2182   11.8170 S.O2    1  UNL1        0.0736
      8 O          63.0876   86.1592   12.9852 O.2     1  UNL1       -0.1499
      9 O          63.0892   84.2772   10.6489 O.2     1  UNL1       -0.1499
     10 N          63.8279   84.2021   12.6360 N.pl3   1  UNL1       -0.2145
     11 H          64.7183   84.4153   12.9980 H       1  UNL1        0.1737
     12 C          63.2109   82.8614   12.9034 C.ar    1  UNL1        0.0709
     13 C          63.3682   81.7512   11.9071 C.ar    1  UNL1        0.0164
     14 C          62.7511   80.4103   12.1746 C.ar    1  UNL1        0.0013
     15 C          61.9767   80.1798   13.4384 C.ar    1  UNL1        0.0006
     16 C          61.8194   81.2900   14.4347 C.ar    1  UNL1        0.0080
     17 C          62.4364   82.6308   14.1672 C.ar    1  UNL1        0.0491
     18 BR         62.2791   83.7410   15.1635 Br      1  UNL1       -0.0477
     19 C          59.3910   88.8571    7.3073 C.3     1  UNL1        0.0051
     20 C          60.1302   89.2825    8.5412 C.3     1  UNL1        0.0276
     21 N          61.5541   90.1223   11.0446 N.pl3   1  UNL1       -0.3342
     22 H          60.6981   90.6063   11.0904 H       1  UNL1        0.1468
     23 C          62.8309   90.8208   11.4077 C.3     1  UNL1        0.0718
     24 C          63.3503   90.7515   12.8133 C.3     1  UNL1        0.0368
     25 C          64.6270   91.4500   13.1763 C.3     1  UNL1        0.0738
     26 N          65.3845   92.2178   12.1339 N.3     1  UNL1       -0.2714
     27 C          66.6613   92.9164   12.4970 C.3     1  UNL1        0.0896
     28 C          64.8653   92.2871   10.7284 C.3     1  UNL1        0.0738
     29 C          63.5884   91.5886   10.3653 C.3     1  UNL1        0.0368
@<TRIPOS>BOND
     1    19    20    1
     2    20     1    1
     3     1     2   ar
     4     2     3   ar
     5     3     4   ar
     6     4     7    1
     7     7     8    2
     8     7     9    2
     9     7    10    1
    10    10    12    1
    11    12    13   ar
    12    13    14   ar
    13    14    15   ar
    14    15    16   ar
    15    16    17   ar
    16    17    18    1
    17     4     5   ar
    18     5     6   ar
    19     6    21    1
    20    21    23    1
    21    23    24    1
    22    24    25    1
    23    25    26    1
    24    26    27    1
    25    26    28    1
    26    28    29    1
    27     6     1   ar
    28    29    23    1
    29    17    12   ar
    30    10    11    1
    31    21    22    1
@<TRIPOS>MOLECULE
*****
 29 31 0 0 0
SMALL
GASTEIGER

@<TRIPOS>ATOM
      1 C          60.8597   86.6690    8.4459 C.ar    1  UNL1       -0.0090
      2 C          60.0420   87.9124    8.6332 C.ar    1  UNL1       -0.0017
      3 C          60.4819   88.9589    9.6137 C.ar    1  UNL1        0.0199
      4 C          61.7395   88.7619   10.4070 C.ar    1  UNL1        0.1264
      5 C          62.5573   87.5185   10.2198 C.ar    1  UNL1        0.0342
      6 C          62.1174   86.4720    9.2392 C.ar    1  UNL1        0.0419
      7 S          62.1794   89.8083   11.3876 S.O2    1  UNL1        0.0736
      8 O          61.2329   90.7907   10.7638 O.2     1  UNL1       -0.1499
      9 O          63.1259   88.8259   12.0114 O.2     1  UNL1       -0.1499
     10 N          62.6193   90.8547   12.3682 N.pl3   1  UNL1       -0.2145
     11 H          61.9978   91.1699   13.0636 H       1  UNL1        0.1737
     12 C          64.0061   91.4209   12.2891 C.ar    1  UNL1        0.0709
     13 C          64.5115   91.9894   10.9963 C.ar    1  UNL1        0.0164
     14 C          65.8983   92.5556   10.9173 C.ar    1  UNL1        0.0013
     15 C          66.7796   92.5534   12.1310 C.ar    1  UNL1        0.0006
     16 C          66.2742   91.9850   13.4239 C.ar    1  UNL1        0.0080
     17 C          64.8874   91.4187   13.5029 C.ar    1  UNL1        0.0491
     18 BR         64.3820   90.8503   14.7957 Br      1  UNL1       -0.0477
     19 C          61.4311   84.9401    6.5928 C.3     1  UNL1        0.0051
     20 C          60.4199   85.6226    7.4654 C.3     1  UNL1        0.0276
     21 N          62.9353   85.2286    9.0520 N.pl3   1  UNL1       -0.3342
     22 H          63.3355   85.0301    8.1747 H       1  UNL1        0.1468
     23 C          63.1434   84.2877   10.2014 C.3     1  UNL1        0.0718
     24 C          62.4455   84.5320   11.5066 C.3     1  UNL1        0.0368
     25 C          62.6537   83.5910   12.6560 C.3     1  UNL1        0.0738
     26 N          63.5597   82.4058   12.5004 N.3     1  UNL1       -0.2714
     27 C          63.7678   81.4648   13.6499 C.3     1  UNL1        0.0896
     28 C          64.2576   82.1614   11.1954 C.3     1  UNL1        0.0738
     29 C          64.0495   83.1024   10.0459 C.3     1  UNL1        0.0368
@<TRIPOS>BOND
     1    19    20    1
     2    20     1    1
     3     1     2   ar
     4     2     3   ar
     5     3     4   ar
     6     4     7    1
     7     7     8    2
     8     7     9    2
     9     7    10    1
    10    10    12    1
    11    12    13   ar
    12    13    14   ar
    13    14    15   ar
    14    15    16   ar
    15    16    17   ar
    16    17    18    1
    17     4     5   ar
    18     5     6   ar
    19     6    21    1
    20    21    23    1
    21    23    24    1
    22    24    25    1
    23    25    26    1
    24    26    27    1
    25    26    28    1
    26    28    29    1
    27     6     1   ar
    28    29    23    1
    29    17    12   ar
    30    10    11    1
    31    21    22    1
@<TRIPOS>MOLECULE
*****
 29 31 0 0 0
SMALL
GASTEIGER

@<TRIPOS>ATOM
      1 C          64.1200   88.5744   14.4754 C.ar    1  UNL1       -0.0090
      2 C          64.8568   89.6802   15.1712 C.ar    1  UNL1       -0.0017
      3 C          65.1471   90.9606   14.4458 C.ar    1  UNL1        0.0199
      4 C          64.7007   91.1352   13.0245 C.ar    1  UNL1        0.1264
      5 C          63.9639   90.0293   12.3286 C.ar    1  UNL1        0.0342
      6 C          63.6736   88.7489   13.0541 C.ar    1  UNL1        0.0419
      7 S          64.9910   92.4156   12.2990 S.O2    1  UNL1        0.0736
      8 O          65.7293   92.9285   13.4998 O.2     1  UNL1       -0.1499
      9 O          64.2526   91.9027   11.0983 O.2     1  UNL1       -0.1499
     10 N          65.2813   93.6960   11.5736 N.pl3   1  UNL1       -0.2145
     11 H          64.7795   94.5130   11.7969 H       1  UNL1        0.1737
     12 C          66.3363   93.7316   10.5079 C.ar    1  UNL1        0.0709
     13 C          67.2093   92.5340   10.2764 C.ar    1  UNL1        0.0164
     14 C          68.2643   92.5696    9.2106 C.ar    1  UNL1        0.0013
     15 C          68.4462   93.8029    8.3764 C.ar    1  UNL1        0.0006
     16 C          67.5732   95.0005    8.6079 C.ar    1  UNL1        0.0080
     17 C          66.5183   94.9649    9.6736 C.ar    1  UNL1        0.0491
     18 BR         65.6453   96.1625    9.9051 Br      1  UNL1       -0.0477
     19 C          64.6862   86.0859   14.9622 C.3     1  UNL1        0.0051
     20 C          63.8297   87.2940   15.2008 C.3     1  UNL1        0.0276
     21 N          62.9367   87.6431   12.3582 N.pl3   1  UNL1       -0.3342
     22 H          63.0224   86.7163   12.6791 H       1  UNL1        0.1468
     23 C          62.0694   87.9493   11.1733 C.3     1  UNL1        0.0718
     24 C          61.2219   89.1870   11.1641 C.3     1  UNL1        0.0368
     25 C          60.3545   89.4932    9.9792 C.3     1  UNL1        0.0738
     26 N          60.3346   88.5618    8.8036 N.3     1  UNL1       -0.2714
     27 C          59.4673   88.8680    7.6188 C.3     1  UNL1        0.0896
     28 C          61.1820   87.3242    8.8128 C.3     1  UNL1        0.0738
     29 C          62.0494   87.0179    9.9977 C.3     1  UNL1        0.0368
@<TRIPOS>BOND
     1    19    20    1
     2    20     1    1
     3     1     2   ar
     4     2     3   ar
     5     3     4   ar
     6     4     7    1
     7     7     8    2
     8     7     9    2
     9     7    10    1
    10    10    12    1
    11    12    13   ar
    12    13    14   ar
    13    14    15   ar
    14    15    16   ar
    15    16    17   ar
    16    17    18    1
    17     4     5   ar
    18     5     6   ar
    19     6    21    1
    20    21    23    1
    21    23    24    1
    22    24    25    1
    23    25    26    1
    24    26    27    1
    25    26    28    1
    26    28    29    1
    27     6     1   ar
    28    29    23    1
    29    17    12   ar
    30    10    11    1
    31    21    22    1
@<TRIPOS>MOLECULE
*****
 29 31 0 0 0
SMALL
GASTEIGER

@<TRIPOS>ATOM
      1 C          63.3534   81.9918   12.7605 C.ar    1  UNL1       -0.0090
      2 C          63.0947   81.7506   11.3028 C.ar    1  UNL1       -0.0017
      3 C          62.7715   82.9023   10.3978 C.ar    1  UNL1        0.0199
      4 C          62.7070   84.2953   10.9505 C.ar    1  UNL1        0.1264
      5 C          62.9657   84.5365   12.4081 C.ar    1  UNL1        0.0342
      6 C          63.2889   83.3847   13.3131 C.ar    1  UNL1        0.0419
      7 S          62.3838   85.4470   10.0455 S.O2    1  UNL1        0.0736
      8 O          63.4351   84.9841    9.0809 O.2     1  UNL1       -0.1499
      9 O          61.3325   85.9099   11.0100 O.2     1  UNL1       -0.1499
     10 N          62.0606   86.5988    9.1404 N.pl3   1  UNL1       -0.2145
     11 H          62.0903   86.4805    8.1635 H       1  UNL1        0.1737
     12 C          61.6922   87.9306    9.7239 C.ar    1  UNL1        0.0709
     13 C          62.5482   88.5441   10.7920 C.ar    1  UNL1        0.0164
     14 C          62.1797   89.8761   11.3755 C.ar    1  UNL1        0.0013
     15 C          60.9554   90.5944   10.8907 C.ar    1  UNL1        0.0006
     16 C          60.0994   89.9808    9.8226 C.ar    1  UNL1        0.0080
     17 C          60.4678   88.6490    9.2392 C.ar    1  UNL1        0.0491
     18 BR         59.6119   88.0354    8.1710 Br      1  UNL1       -0.0477
     19 C          62.6773   79.7393   13.8645 C.3     1  UNL1        0.0051
     20 C          63.6766   80.8400   13.6655 C.3     1  UNL1        0.0276
     21 N          63.5476   83.6260   14.7709 N.pl3   1  UNL1       -0.3342
     22 H          63.7768   82.8724   15.3615 H       1  UNL1        0.1468
     23 C          63.4571   85.0154   15.3287 C.3     1  UNL1        0.0718
     24 C          64.2315   86.1312   14.6920 C.3     1  UNL1        0.0368
     25 C          64.1410   87.5206   15.2499 C.3     1  UNL1        0.0738
     26 N          63.2761   87.7943   16.4445 N.3     1  UNL1       -0.2714
     27 C          63.1855   89.1838   17.0024 C.3     1  UNL1        0.0896
     28 C          62.5017   86.6786   17.0812 C.3     1  UNL1        0.0738
     29 C          62.5922   85.2891   16.5233 C.3     1  UNL1        0.0368
@<TRIPOS>BOND
     1    19    20    1
     2    20     1    1
     3     1     2   ar
     4     2     3   ar
     5     3     4   ar
     6     4     7    1
     7     7     8    2
     8     7     9    2
     9     7    10    1
    10    10    12    1
    11    12    13   ar
    12    13    14   ar
    13    14    15   ar
    14    15    16   ar
    15    16    17   ar
    16    17    18    1
    17     4     5   ar
    18     5     6   ar
    19     6    21    1
    20    21    23    1
    21    23    24    1
    22    24    25    1
    23    25    26    1
    24    26    27    1
    25    26    28    1
    26    28    29    1
    27     6     1   ar
    28    29    23    1
    29    17    12   ar
    30    10    11    1
    31    21    22    1
@<TRIPOS>MOLECULE
*****
 29 31 0 0 0
SMALL
GASTEIGER

@<TRIPOS>ATOM
      1 C          63.8074   84.9445   13.5593 C.ar    1  UNL1       -0.0090
      2 C          64.4895   85.6002   14.7231 C.ar    1  UNL1       -0.0017
      3 C          64.5146   87.0961   14.8323 C.ar    1  UNL1        0.0199
      4 C          63.8576   87.9361   13.7775 C.ar    1  UNL1        0.1264
      5 C          63.1754   87.2804   12.6137 C.ar    1  UNL1        0.0342
      6 C          63.1504   85.7846   12.5045 C.ar    1  UNL1        0.0419
      7 S          63.8827   89.4319   13.8867 S.O2    1  UNL1        0.0736
      8 O          65.1572   89.3531   14.6737 O.2     1  UNL1       -0.1499
      9 O          62.6082   89.5107   13.0996 O.2     1  UNL1       -0.1499
     10 N          63.9078   90.9278   13.9958 N.pl3   1  UNL1       -0.2145
     11 H          63.4019   91.3777   14.7105 H       1  UNL1        0.1737
     12 C          64.7037   91.7380   13.0160 C.ar    1  UNL1        0.0709
     13 C          64.3589   91.7004   11.5567 C.ar    1  UNL1        0.0164
     14 C          65.1548   92.5107   10.5768 C.ar    1  UNL1        0.0013
     15 C          66.2955   93.3585   11.0564 C.ar    1  UNL1        0.0006
     16 C          66.6403   93.3961   12.5158 C.ar    1  UNL1        0.0080
     17 C          65.8444   92.5858   13.4955 C.ar    1  UNL1        0.0491
     18 BR         66.1892   92.6234   14.9549 Br      1  UNL1       -0.0477
     19 C          64.4739   82.7685   12.3061 C.3     1  UNL1        0.0051
     20 C          63.7823   83.4487   13.4501 C.3     1  UNL1        0.0276
     21 N          62.4682   85.1288   11.3406 N.pl3   1  UNL1       -0.3342
     22 H          62.5429   84.1558   11.2105 H       1  UNL1        0.1468
     23 C          61.6721   85.9556   10.3748 C.3     1  UNL1        0.0718
     24 C          61.8039   85.7196    8.8993 C.3     1  UNL1        0.0368
     25 C          61.0078   86.5464    7.9336 C.3     1  UNL1        0.0738
     26 N          60.0800   87.6091    8.4432 N.3     1  UNL1       -0.2714
     27 C          59.2839   88.4359    7.4774 C.3     1  UNL1        0.0896
     28 C          59.9482   87.8451    9.9186 C.3     1  UNL1        0.0738
     29 C          60.7443   87.0183   10.8845 C.3     1  UNL1        0.0368
@<TRIPOS>BOND
     1    19    20    1
     2    20     1    1
     3     1     2   ar
     4     2     3   ar
     5     3     4   ar
     6     4     7    1
     7     7     8    2
     8     7     9    2
     9     7    10    1
    10    10    12    1
    11    12    13   ar
    12    13    14   ar
    13    14    15   ar
    14    15    16   ar
    15    16    17   ar
    16    17    18    1
    17     4     5   ar
    18     5     6   ar
    19     6    21    1
    20    21    23    1
    21    23    24    1
    22    24    25    1
    23    25    26    1
    24    26    27    1
    25    26    28    1
    26    28    29    1
    27     6     1   ar
    28    29    23    1
    29    17    12   ar
    30    10    11    1
    31    21    22    1
@<TRIPOS>MOLECULE
*****
 29 31 0 0 0
SMALL
GASTEIGER

@<TRIPOS>ATOM
      1 C          63.8772   85.0895   13.6477 C.ar    1  UNL1       -0.0090
      2 C          64.5202   85.8134   14.7933 C.ar    1  UNL1       -0.0017
      3 C          64.4943   87.3124   14.8426 C.ar    1  UNL1        0.0199
      4 C          63.8253   88.0874   13.7464 C.ar    1  UNL1        0.1264
      5 C          63.1823   87.3635   12.6008 C.ar    1  UNL1        0.0342
      6 C          63.2082   85.8646   12.5515 C.ar    1  UNL1        0.0419
      7 S          63.7994   89.5864   13.7958 S.O2    1  UNL1        0.0736
      8 O          64.0281   89.5415   15.2776 O.2     1  UNL1       -0.1499
      9 O          63.5707   89.6312   12.3140 O.2     1  UNL1       -0.1499
     10 N          63.7735   91.0854   13.8452 N.pl3   1  UNL1       -0.2145
     11 H          62.9406   91.5702   13.6437 H       1  UNL1        0.1737
     12 C          65.0164   91.8456   14.2015 C.ar    1  UNL1        0.0709
     13 C          65.4602   91.9296   15.6319 C.ar    1  UNL1        0.0164
     14 C          66.7032   92.6899   15.9882 C.ar    1  UNL1        0.0013
     15 C          67.5024   93.3663   14.9141 C.ar    1  UNL1        0.0006
     16 C          67.0587   93.2823   13.4837 C.ar    1  UNL1        0.0080
     17 C          65.8157   92.5221   13.1274 C.ar    1  UNL1        0.0491
     18 BR         65.3720   92.4381   11.6969 Br      1  UNL1       -0.0477
     19 C          62.8563   82.7980   14.3235 C.3     1  UNL1        0.0051
     20 C          63.9031   83.5905   13.5983 C.3     1  UNL1        0.0276
     21 N          62.5652   85.1407   11.4058 N.pl3   1  UNL1       -0.3342
     22 H          62.6922   84.1698   11.3034 H       1  UNL1        0.1468
     23 C          61.7285   85.8960   10.4161 C.3     1  UNL1        0.0718
     24 C          60.7624   86.9398   10.8928 C.3     1  UNL1        0.0368
     25 C          59.9258   87.6952    9.9031 C.3     1  UNL1        0.0738
     26 N          60.0552   87.4068    8.4368 N.3     1  UNL1       -0.2714
     27 C          59.2186   88.1621    7.4472 C.3     1  UNL1        0.0896
     28 C          61.0212   86.3630    7.9602 C.3     1  UNL1        0.0738
     29 C          61.8580   85.6076    8.9498 C.3     1  UNL1        0.0368
@<TRIPOS>BOND
     1    19    20    1
     2    20     1    1
     3     1     2   ar
     4     2     3   ar
     5     3     4   ar
     6     4     7    1
     7     7     8    2
     8     7     9    2
     9     7    10    1
    10    10    12    1
    11    12    13   ar
    12    13    14   ar
    13    14    15   ar
    14    15    16   ar
    15    16    17   ar
    16    17    18    1
    17     4     5   ar
    18     5     6   ar
    19     6    21    1
    20    21    23    1
    21    23    24    1
    22    24    25    1
    23    25    26    1
    24    26    27    1
    25    26    28    1
    26    28    29    1
    27     6     1   ar
    28    29    23    1
    29    17    12   ar
    30    10    11    1
    31    21    22    1
@<TRIPOS>MOLECULE
*****
 29 31 0 0 0
SMALL
GASTEIGER

@<TRIPOS>ATOM
      1 C          61.0270   88.8007   10.2581 C.ar    1  UNL1       -0.0090
      2 C          61.2189   90.0945    9.5237 C.ar    1  UNL1       -0.0017
      3 C          62.3111   91.0362    9.9361 C.ar    1  UNL1        0.0199
      4 C          63.2115   90.6842   11.0830 C.ar    1  UNL1        0.1264
      5 C          63.0197   89.3905   11.8174 C.ar    1  UNL1        0.0342
      6 C          61.9274   88.4488   11.4050 C.ar    1  UNL1        0.0419
      7 S          64.3038   91.6259   11.4954 S.O2    1  UNL1        0.0736
      8 O          64.4400   90.8969   12.7992 O.2     1  UNL1       -0.1499
      9 O          64.1676   92.3549   10.1915 O.2     1  UNL1       -0.1499
     10 N          65.3961   92.5677   11.9078 N.pl3   1  UNL1       -0.2145
     11 H          65.4084   92.9380   12.8199 H       1  UNL1        0.1737
     12 C          66.4696   92.9451   10.9306 C.ar    1  UNL1        0.0709
     13 C          67.4080   91.8989   10.4061 C.ar    1  UNL1        0.0164
     14 C          68.4816   92.2764    9.4289 C.ar    1  UNL1        0.0013
     15 C          68.6168   93.7000    8.9761 C.ar    1  UNL1        0.0006
     16 C          67.6785   94.7461    9.5005 C.ar    1  UNL1        0.0080
     17 C          66.6049   94.3687   10.4778 C.ar    1  UNL1        0.0491
     18 BR         65.6666   95.4149   11.0022 Br      1  UNL1       -0.0477
     19 C          59.7079   87.5638    8.3927 C.3     1  UNL1        0.0051
     20 C          59.9347   87.8590    9.8457 C.3     1  UNL1        0.0276
     21 N          61.7356   87.1550   12.1395 N.pl3   1  UNL1       -0.3342
     22 H          61.1573   87.1219   12.9355 H       1  UNL1        0.1468
     23 C          62.4249   85.9116   11.6611 C.3     1  UNL1        0.0718
     24 C          63.0322   84.9625   12.6513 C.3     1  UNL1        0.0368
     25 C          63.7215   83.7191   12.1729 C.3     1  UNL1        0.0738
     26 N          63.8035   83.4248   10.7044 N.3     1  UNL1       -0.2714
     27 C          64.4928   82.1815   10.2260 C.3     1  UNL1        0.0896
     28 C          63.1962   84.3739    9.7142 C.3     1  UNL1        0.0738
     29 C          62.5069   85.6173   10.1926 C.3     1  UNL1        0.0368
@<TRIPOS>BOND
     1    19    20    1
     2    20     1    1
     3     1     2   ar
     4     2     3   ar
     5     3     4   ar
     6     4     7    1
     7     7     8    2
     8     7     9    2
     9     7    10    1
    10    10    12    1
    11    12    13   ar
    12    13    14   ar
    13    14    15   ar
    14    15    16   ar
    15    16    17   ar
    16    17    18    1
    17     4     5   ar
    18     5     6   ar
    19     6    21    1
    20    21    23    1
    21    23    24    1
    22    24    25    1
    23    25    26    1
    24    26    27    1
    25    26    28    1
    26    28    29    1
    27     6     1   ar
    28    29    23    1
    29    17    12   ar
    30    10    11    1
    31    21    22    1
@<TRIPOS>MOLECULE
*****
 29 31 0 0 0
SMALL
GASTEIGER

@<TRIPOS>ATOM
      1 C          60.8070   88.0812    9.6557 C.ar    1  UNL1       -0.0090
      2 C          61.1337   89.3773    8.9752 C.ar    1  UNL1       -0.0017
      3 C          61.9884   90.3951    9.6707 C.ar    1  UNL1        0.0199
      4 C          62.5163   90.1167   11.0468 C.ar    1  UNL1        0.1264
      5 C          62.1896   88.8205   11.7274 C.ar    1  UNL1        0.0342
      6 C          61.3349   87.8028   11.0318 C.ar    1  UNL1        0.0419
      7 S          63.3709   91.1344   11.7424 S.O2    1  UNL1        0.0736
      8 O          63.2809   90.3418   13.0127 O.2     1  UNL1       -0.1499
      9 O          63.4609   91.9270   10.4721 O.2     1  UNL1       -0.1499
     10 N          64.2256   92.1521   12.4379 N.pl3   1  UNL1       -0.2145
     11 H          63.8054   92.8876   12.9397 H       1  UNL1        0.1737
     12 C          65.7204   92.0493   12.3691 C.ar    1  UNL1        0.0709
     13 C          66.4191   92.1517   11.0456 C.ar    1  UNL1        0.0164
     14 C          67.9140   92.0488   10.9768 C.ar    1  UNL1        0.0013
     15 C          68.7102   91.8437   12.2313 C.ar    1  UNL1        0.0006
     16 C          68.0116   91.7413   13.5548 C.ar    1  UNL1        0.0080
     17 C          66.5167   91.8441   13.6236 C.ar    1  UNL1        0.0491
     18 BR         65.8181   91.7418   14.9471 Br      1  UNL1       -0.0477
     19 C          60.5406   86.1993    7.8845 C.3     1  UNL1        0.0051
     20 C          59.9524   87.0634    8.9602 C.3     1  UNL1        0.0276
     21 N          61.0082   86.5066   11.7125 N.pl3   1  UNL1       -0.3342
     22 H          60.1258   86.3784   12.1298 H       1  UNL1        0.1468
     23 C          62.0260   85.4056   11.7573 C.3     1  UNL1        0.0718
     24 C          62.6003   84.8627   10.4823 C.3     1  UNL1        0.0368
     25 C          63.6180   83.7618   10.5272 C.3     1  UNL1        0.0738
     26 N          64.0616   83.2037   11.8470 N.3     1  UNL1       -0.2714
     27 C          65.0794   82.1028   11.8918 C.3     1  UNL1        0.0896
     28 C          63.4874   83.7466   13.1219 C.3     1  UNL1        0.0738
     29 C          62.4696   84.8476   13.0771 C.3     1  UNL1        0.0368
@<TRIPOS>BOND
     1    19    20    1
     2    20     1    1
     3     1     2   ar
     4     2     3   ar
     5     3     4   ar
     6     4     7    1
     7     7     8    2
     8     7     9    2
     9     7    10    1
    10    10    12    1
    11    12    13   ar
    12    13    14   ar
    13    14    15   ar
    14    15    16   ar
    15    16    17   ar
    16    17    18    1
    17     4     5   ar
    18     5     6   ar
    19     6    21    1
    20    21    23    1
    21    23    24    1
    22    24    25    1
    23    25    26    1
    24    26    27    1
    25    26    28    1
    26    28    29    1
    27     6     1   ar
    28    29    23    1
    29    17    12   ar
    30    10    11    1
    31    21    22    1
