@<TRIPOS>MOLECULE
*****
 62 65 0 0 0
SMALL
GASTEIGER

@<TRIPOS>ATOM
      1 C          63.3069   82.8922   10.8438 C.3     1  UNL1        0.1953
      2 O          63.0378   83.9437    9.8085 O.3     1  UNL1       -0.4497
      3 C          62.8280   85.3512    9.3346 C.2     1  UNL1        0.3188
      4 O          62.6016   85.1775    7.8620 O.2     1  UNL1       -0.2500
      5 C          62.7189   86.8363    9.5160 C.3     1  UNL1        0.1263
      6 C          62.4895   86.9541    8.1909 C.3     1  UNL1        0.0142
      7 C          62.7322   88.1045   10.3169 C.3     1  UNL1        0.1306
      8 C          62.8653   88.9048   11.5787 C.3     1  UNL1        0.0575
      9 C          62.6554   90.3124   11.1047 C.3     1  UNL1        0.0051
     10 C          63.0917   89.0787   13.0512 C.3     1  UNL1        0.1448
     11 C          63.3667   88.5916   14.4430 C.3     1  UNL1        0.1183
     12 C          63.2205   90.0839   14.4035 C.3     1  UNL1        0.0321
     13 C          63.6357   87.5401   15.4784 C.3     1  UNL1        0.0370
     14 C          63.8456   86.1326   15.9523 C.3     1  UNL1        0.0601
     15 C          64.0720   86.3064   17.4249 C.3     1  UNL1        0.0078
     16 C          63.9546   84.6475   15.7709 C.2     1  UNL1        0.1523
     17 O          64.2296   84.1605   17.1627 O.2     1  UNL1       -0.2960
     18 C          63.9413   83.3793   14.9700 C.3     1  UNL1        0.0869
     19 C          64.2104   82.3278   16.0054 C.3     1  UNL1        0.0104
     20 C          63.8083   82.5790   13.7082 C.3     1  UNL1        0.1451
     21 O          64.0181   81.1714   14.1822 O.3     1  UNL1       -0.3815
     22 C          63.5819   82.4052   12.2357 C.3     1  UNL1        0.1497
     23 C          63.8168   81.0878   12.9133 C.3     1  UNL1        0.0356
     24 O          63.5271   81.2688   11.2582 O.3     1  UNL1       -0.3808
     25 H          64.1758   81.1726   15.1393 H       1  UNL1        0.2105
     26 H          63.6823   80.4329   11.7252 H       1  UNL1        0.2105
     27 C          62.7508   80.3621   10.6455 C.3     1  UNL1        0.0039
     28 C          63.2936   81.6240   10.0430 C.3     1  UNL1        0.0462
     29 O          63.5348   89.1949   15.8060 O.3     1  UNL1       -0.3535
     30 C          63.2390   89.0260   16.5267 C.3     1  UNL1        0.1740
     31 O          62.4632   89.1560    9.2815 O.3     1  UNL1       -0.3323
     32 C          61.2085   89.0973    8.4615 C.3     1  UNL1        0.2375
     33 C          60.9623   90.1211    7.3931 C.3     1  UNL1        0.0910
     34 C          59.7077   90.0624    6.5730 C.3     1  UNL1        0.1246
     35 C          58.6792   90.4232    5.5425 C.3     1  UNL1        0.0324
     36 C          58.6993   88.9800    6.8214 C.3     1  UNL1        0.1623
     37 O          57.4447   88.9215    6.0013 O.3     1  UNL1       -0.3796
     38 C          58.9456   87.9564    7.8898 C.3     1  UNL1        0.1468
     39 C          57.9371   86.8740    8.1381 C.3     1  UNL1        0.0348
     40 O          60.2001   88.0150    8.7098 O.3     1  UNL1       -0.3304
     41 H          57.4426   89.6502    5.3611 H       1  UNL1        0.2105
     42 O          60.3589   91.2701    5.9668 O.3     1  UNL1       -0.3532
     43 C          59.7324   91.9451    4.7829 C.3     1  UNL1        0.1740
     44 O          62.9826   90.5636   13.2327 O.3     1  UNL1       -0.3278
     45 C          63.9023   91.2727   14.1821 C.3     1  UNL1        0.2785
     46 O          63.4347   91.6124   15.5663 O.3     1  UNL1       -0.3302
     47 C          64.3544   92.3215   16.5156 C.3     1  UNL1        0.1198
     48 C          63.8867   92.6613   17.8999 C.3     1  UNL1        0.0322
     49 C          65.7416   92.6909   16.0809 C.3     1  UNL1        0.0534
     50 C          66.2092   92.3512   14.6967 C.3     1  UNL1        0.1245
     51 C          65.2896   91.6421   13.7473 C.3     1  UNL1        0.2426
     52 O          66.0239   91.4393   12.4551 O.2     1  UNL1       -0.4466
     53 C          67.3973   92.0231   12.6060 C.2     1  UNL1        0.2833
     54 N          68.4683   92.0403   11.5558 N.2     1  UNL1       -0.2242
     55 N          67.5119   92.5867   13.9913 N.pl3   1  UNL1       -0.2603
     56 C          68.7175   93.2664   14.5698 C.3     1  UNL1        0.1166
     57 C          68.2073   91.4347   10.2085 C.3     1  UNL1        0.1315
     58 C          68.0982   92.3151    8.9990 C.3     1  UNL1        0.0438
     59 C          68.3301   93.7919    9.1230 C.3     1  UNL1        0.0742
     60 N          67.1628   94.7282    9.2271 N.3     1  UNL1       -0.2703
     61 C          66.9133   95.7388    8.1471 C.3     1  UNL1        0.0897
     62 C          66.2450   94.6538   10.4112 C.3     1  UNL1        0.0897
@<TRIPOS>BOND
     1    27    28    1
     2     1    28    1
     3     1     2    1
     4     2     3    1
     5     3     4    2
     6     3     5    1
     7     5     6    1
     8     5     7    1
     9     7    31    1
    10    32    31    1
    11    32    33    1
    12    33    34    1
    13    34    35    1
    14    34    42    1
    15    42    43    1
    16    34    36    1
    17    36    37    1
    18    36    38    1
    19    38    39    1
    20    38    40    1
    21     7     8    1
    22     8     9    1
    23     8    10    1
    24    10    44    1
    25    45    44    1
    26    45    46    1
    27    46    47    1
    28    47    48    1
    29    47    49    1
    30    50    49    1
    31    50    51    1
    32    51    52    1
    33    52    53    1
    34    53    54    2
    35    54    57    1
    36    57    58    1
    37    58    59    1
    38    59    60    1
    39    60    61    1
    40    60    62    1
    41    53    55    1
    42    55    56    1
    43    10    11    1
    44    11    12    1
    45    11    29    1
    46    29    30    1
    47    11    13    1
    48    13    14    1
    49    14    15    1
    50    14    16    1
    51    16    17    2
    52    16    18    1
    53    18    19    1
    54    18    20    1
    55    20    21    1
    56    20    22    1
    57    22    23    1
    58    22    24    1
    59    22     1    1
    60    40    32    1
    61    51    45    1
    62    55    50    1
    63    37    41    1
    64    21    25    1
    65    24    26    1
@<TRIPOS>MOLECULE
*****
 62 65 0 0 0
SMALL
GASTEIGER

@<TRIPOS>ATOM
      1 C          62.5038   83.3163   11.4833 C.3     1  UNL1        0.1953
      2 O          62.5032   84.3417   10.3885 O.3     1  UNL1       -0.4497
      3 C          62.5591   85.7387    9.8454 C.2     1  UNL1        0.3188
      4 O          62.4570   85.5254    8.3642 O.2     1  UNL1       -0.2500
      5 C          62.6605   87.2309    9.9614 C.3     1  UNL1        0.1263
      6 C          62.5852   87.3135    8.6161 C.3     1  UNL1        0.0142
      7 C          62.7872   88.5224   10.7137 C.3     1  UNL1        0.1306
      8 C          62.9143   89.3575   11.9533 C.3     1  UNL1        0.0575
      9 C          62.9702   90.7546   11.4102 C.3     1  UNL1        0.0051
     10 C          63.0164   89.5709   13.4345 C.3     1  UNL1        0.1448
     11 C          63.0734   89.1203   14.8641 C.3     1  UNL1        0.1183
     12 C          63.1614   90.6138   14.7563 C.3     1  UNL1        0.0321
     13 C          63.0740   88.0948   15.9589 C.3     1  UNL1        0.0370
     14 C          63.0180   86.6978   16.5020 C.3     1  UNL1        0.0601
     15 C          63.1201   86.9111   17.9832 C.3     1  UNL1        0.0078
     16 C          62.9166   85.2057   16.3859 C.2     1  UNL1        0.1523
     17 O          62.9736   84.7550   17.8155 O.2     1  UNL1       -0.2960
     18 C          62.7899   83.9142   15.6336 C.3     1  UNL1        0.0869
     19 C          62.7905   82.8887   16.7284 C.3     1  UNL1        0.0104
     20 C          62.6629   83.0790   14.3940 C.3     1  UNL1        0.1451
     21 O          62.6070   81.6819   14.9372 O.3     1  UNL1       -0.3815
     22 C          62.5608   82.8656   12.9129 C.3     1  UNL1        0.1497
     23 C          62.5230   81.5643   13.6579 C.3     1  UNL1        0.0356
     24 O          62.4311   81.7014   11.9760 O.3     1  UNL1       -0.3808
     25 H          62.6666   81.7087   15.9050 H       1  UNL1        0.2105
     26 H          62.4094   80.8767   12.4862 H       1  UNL1        0.2105
     27 C          63.6021   81.2222   10.4070 C.3     1  UNL1        0.0039
     28 C          62.3770   82.0248   10.7310 C.3     1  UNL1        0.0462
     29 O          63.1947   89.7609   16.2150 O.3     1  UNL1       -0.3535
     30 C          63.1935   89.4825   16.9620 C.3     1  UNL1        0.1740
     31 O          62.7866   89.5478    9.6190 O.3     1  UNL1       -0.3323
     32 C          61.6728   89.5719    8.6146 C.3     1  UNL1        0.2375
     33 C          60.4678   88.7003    8.8101 C.3     1  UNL1        0.0910
     34 C          59.3539   88.7243    7.8057 C.3     1  UNL1        0.1246
     35 C          58.0512   88.3980    7.1375 C.3     1  UNL1        0.0324
     36 C          59.4451   89.6201    6.6059 C.3     1  UNL1        0.1623
     37 O          58.3312   89.6441    5.6016 O.3     1  UNL1       -0.3796
     38 C          60.6501   90.4917    6.4106 C.3     1  UNL1        0.1468
     39 C          60.7412   91.3873    5.2107 C.3     1  UNL1        0.0348
     40 O          61.7639   90.4676    7.4148 O.3     1  UNL1       -0.3304
     41 H          57.6348   89.0271    5.8763 H       1  UNL1        0.2105
     42 O          58.8103   87.7153    8.7734 O.3     1  UNL1       -0.3532
     43 C          59.2422   87.7450   10.2095 C.3     1  UNL1        0.1740
     44 O          63.1177   91.0629   13.5506 O.3     1  UNL1       -0.3278
     45 C          64.1454   91.6768   14.4546 C.3     1  UNL1        0.2785
     46 O          63.7771   92.0609   15.8570 O.3     1  UNL1       -0.3302
     47 C          64.8048   92.6747   16.7609 C.3     1  UNL1        0.1198
     48 C          64.4365   93.0588   18.1634 C.3     1  UNL1        0.0322
     49 C          66.2007   92.9045   16.2624 C.3     1  UNL1        0.0534
     50 C          66.5690   92.5204   14.8600 C.3     1  UNL1        0.1245
     51 C          65.5414   91.9065   13.9560 C.3     1  UNL1        0.2426
     52 O          66.1926   91.6321   12.6329 O.2     1  UNL1       -0.4466
     53 C          67.6227   92.0764   12.7192 C.2     1  UNL1        0.2833
     54 N          68.6413   91.9872   11.6217 N.2     1  UNL1       -0.2242
     55 N          67.8554   92.6253   14.0955 N.pl3   1  UNL1       -0.2603
     56 C          69.1475   93.1816   14.6161 C.3     1  UNL1        0.1166
     57 C          68.2607   91.4111   10.2900 C.3     1  UNL1        0.1315
     58 C          68.2456   92.2853    9.0713 C.3     1  UNL1        0.0438
     59 C          68.3507   93.7747    9.2154 C.3     1  UNL1        0.0742
     60 N          67.1092   94.6164    9.2271 N.3     1  UNL1       -0.2703
     61 C          66.8651   95.6083    8.1286 C.3     1  UNL1        0.0897
     62 C          66.1117   94.4663   10.3372 C.3     1  UNL1        0.0897
@<TRIPOS>BOND
     1    27    28    1
     2     1    28    1
     3     1     2    1
     4     2     3    1
     5     3     4    2
     6     3     5    1
     7     5     6    1
     8     5     7    1
     9     7    31    1
    10    32    31    1
    11    32    33    1
    12    33    34    1
    13    34    35    1
    14    34    42    1
    15    42    43    1
    16    34    36    1
    17    36    37    1
    18    36    38    1
    19    38    39    1
    20    38    40    1
    21     7     8    1
    22     8     9    1
    23     8    10    1
    24    10    44    1
    25    45    44    1
    26    45    46    1
    27    46    47    1
    28    47    48    1
    29    47    49    1
    30    50    49    1
    31    50    51    1
    32    51    52    1
    33    52    53    1
    34    53    54    2
    35    54    57    1
    36    57    58    1
    37    58    59    1
    38    59    60    1
    39    60    61    1
    40    60    62    1
    41    53    55    1
    42    55    56    1
    43    10    11    1
    44    11    12    1
    45    11    29    1
    46    29    30    1
    47    11    13    1
    48    13    14    1
    49    14    15    1
    50    14    16    1
    51    16    17    2
    52    16    18    1
    53    18    19    1
    54    18    20    1
    55    20    21    1
    56    20    22    1
    57    22    23    1
    58    22    24    1
    59    22     1    1
    60    40    32    1
    61    51    45    1
    62    55    50    1
    63    37    41    1
    64    21    25    1
    65    24    26    1
@<TRIPOS>MOLECULE
*****
 62 65 0 0 0
SMALL
GASTEIGER

@<TRIPOS>ATOM
      1 C          63.7503   86.1357   16.0226 C.3     1  UNL1        0.1953
      2 O          63.5810   87.5944   15.7170 O.3     1  UNL1       -0.4497
      3 C          63.3203   88.7651   14.8162 C.2     1  UNL1        0.3188
      4 O          63.4096   89.9334   15.7527 O.2     1  UNL1       -0.2500
      5 C          63.0199   89.4159   13.4984 C.3     1  UNL1        0.1263
      6 C          63.0460   90.6161   14.1160 C.3     1  UNL1        0.0142
      7 C          62.7392   89.4179   12.0249 C.3     1  UNL1        0.1306
      8 C          62.5339   88.7705   10.6874 C.3     1  UNL1        0.0575
      9 C          62.2732   89.9413    9.7866 C.3     1  UNL1        0.0051
     10 C          62.4446   87.6023    9.7508 C.3     1  UNL1        0.1448
     11 C          62.4890   86.1444    9.4007 C.3     1  UNL1        0.1183
     12 C          62.1953   86.9887    8.1961 C.3     1  UNL1        0.0321
     13 C          62.6583   84.6857    9.7063 C.3     1  UNL1        0.0370
     14 C          62.9190   83.5150   10.6071 C.3     1  UNL1        0.0601
     15 C          62.8297   82.3467    9.6706 C.3     1  UNL1        0.0078
     16 C          63.2195   82.8642   11.9248 C.2     1  UNL1        0.1523
     17 O          63.2639   81.4063   11.5746 O.2     1  UNL1       -0.2960
     18 C          63.5001   82.8622   13.3983 C.3     1  UNL1        0.0869
     19 C          63.6695   81.4035   13.7039 C.3     1  UNL1        0.0104
     20 C          63.7054   83.5096   14.7359 C.3     1  UNL1        0.1451
     21 O          63.9661   82.3388   15.6367 O.3     1  UNL1       -0.3815
     22 C          63.7947   84.6778   15.6724 C.3     1  UNL1        0.1497
     23 C          64.0300   83.3814   16.3894 C.3     1  UNL1        0.0356
     24 O          64.0559   84.8988   17.1328 O.3     1  UNL1       -0.3808
     25 H          63.9302   81.5188   15.1198 H       1  UNL1        0.2105
     26 H          64.2038   84.0445   17.5678 H       1  UNL1        0.2105
     27 C          62.9992   86.6459   18.4568 C.3     1  UNL1        0.0039
     28 C          64.0310   86.1337   17.4961 C.3     1  UNL1        0.0462
     29 O          62.3188   85.3034    8.1704 O.3     1  UNL1       -0.3535
     30 C          62.8241   84.9198    7.6876 C.3     1  UNL1        0.1740
     31 O          62.5699   90.8766   11.7193 O.3     1  UNL1       -0.3323
     32 C          63.7545   91.7954   11.7677 C.3     1  UNL1        0.2375
     33 C          64.4789   92.0176   13.0623 C.3     1  UNL1        0.0910
     34 C          65.6636   92.9364   13.1108 C.3     1  UNL1        0.1246
     35 C          66.8290   93.7061   13.6580 C.3     1  UNL1        0.0324
     36 C          66.1239   93.6330   11.8646 C.3     1  UNL1        0.1623
     37 O          67.3086   94.5517   11.9131 O.3     1  UNL1       -0.3796
     38 C          65.3995   93.4107   10.5700 C.3     1  UNL1        0.1468
     39 C          65.8599   94.1074    9.3239 C.3     1  UNL1        0.0348
     40 O          64.2149   92.4920   10.5216 O.3     1  UNL1       -0.3304
     41 H          67.6568   94.5828   12.8179 H       1  UNL1        0.2105
     42 O          65.6080   92.5071   14.5469 O.3     1  UNL1       -0.3532
     43 C          66.8675   92.1188   15.2629 C.3     1  UNL1        0.1740
     44 O          62.1441   88.2530    8.4332 O.3     1  UNL1       -0.3278
     45 C          60.7347   88.2951    7.9216 C.3     1  UNL1        0.2785
     46 O          59.7001   87.3740    8.4970 O.3     1  UNL1       -0.3302
     47 C          58.2907   87.4161    7.9853 C.3     1  UNL1        0.1198
     48 C          57.2561   86.4949    8.5608 C.3     1  UNL1        0.0322
     49 C          57.9159   88.3792    6.8982 C.3     1  UNL1        0.0534
     50 C          58.9505   89.3004    6.3228 C.3     1  UNL1        0.1245
     51 C          60.3599   89.2583    6.8344 C.3     1  UNL1        0.2426
     52 O          61.1577   90.2800    6.0797 O.2     1  UNL1       -0.4466
     53 C          60.2413   90.9534    5.1016 C.2     1  UNL1        0.2833
     54 N          60.6223   92.0414    4.1417 N.2     1  UNL1       -0.2242
     55 N          58.8773   90.3480    5.2518 N.pl3   1  UNL1       -0.2603
     56 C          57.6545   90.7242    4.4686 C.3     1  UNL1        0.1166
     57 C          62.0333   92.5489    4.1048 C.3     1  UNL1        0.1315
     58 C          62.9992   92.0068    3.0934 C.3     1  UNL1        0.0438
     59 C          63.3015   92.7898    1.8501 C.3     1  UNL1        0.0742
     60 N          62.1803   93.3147    1.0033 N.3     1  UNL1       -0.2703
     61 C          62.0270   94.7920    0.7935 C.3     1  UNL1        0.0897
     62 C          61.2123   92.3623    0.3662 C.3     1  UNL1        0.0897
@<TRIPOS>BOND
     1    27    28    1
     2     1    28    1
     3     1     2    1
     4     2     3    1
     5     3     4    2
     6     3     5    1
     7     5     6    1
     8     5     7    1
     9     7    31    1
    10    32    31    1
    11    32    33    1
    12    33    34    1
    13    34    35    1
    14    34    42    1
    15    42    43    1
    16    34    36    1
    17    36    37    1
    18    36    38    1
    19    38    39    1
    20    38    40    1
    21     7     8    1
    22     8     9    1
    23     8    10    1
    24    10    44    1
    25    45    44    1
    26    45    46    1
    27    46    47    1
    28    47    48    1
    29    47    49    1
    30    50    49    1
    31    50    51    1
    32    51    52    1
    33    52    53    1
    34    53    54    2
    35    54    57    1
    36    57    58    1
    37    58    59    1
    38    59    60    1
    39    60    61    1
    40    60    62    1
    41    53    55    1
    42    55    56    1
    43    10    11    1
    44    11    12    1
    45    11    29    1
    46    29    30    1
    47    11    13    1
    48    13    14    1
    49    14    15    1
    50    14    16    1
    51    16    17    2
    52    16    18    1
    53    18    19    1
    54    18    20    1
    55    20    21    1
    56    20    22    1
    57    22    23    1
    58    22    24    1
    59    22     1    1
    60    40    32    1
    61    51    45    1
    62    55    50    1
    63    37    41    1
    64    21    25    1
    65    24    26    1
