@<TRIPOS>MOLECULE
*****
 23 26 0 0 0
SMALL
GASTEIGER

@<TRIPOS>ATOM
      1 C          61.5108   87.1365   10.8068 C.3     1  UNL1        0.1140
      2 C          62.2335   88.4094   11.1349 C.ar    1  UNL1        0.0273
      3 C          63.2215   88.7542   12.2096 C.ar    1  UNL1        0.1379
      4 F          63.6438   87.7123   13.2025 F       1  UNL1       -0.2044
      5 C          63.7873   90.1411   12.2912 C.ar    1  UNL1        0.0294
      6 C          63.3650   91.1829   11.2983 C.ar    1  UNL1        0.0023
      7 C          62.3769   90.8381   10.2236 C.ar    1  UNL1        0.0014
      8 C          61.8112   89.4514   10.1419 C.ar    1  UNL1        0.0173
      9 C          60.8275   88.8225    9.2001 C.ar    1  UNL1        0.0804
     10 C          59.9586   89.0779    8.0044 C.ar    1  UNL1        0.1178
     11 N          59.2359   87.8050    7.6764 N.ar    1  UNL1       -0.2223
     12 C          59.6582   86.7630    8.6693 C.ar    1  UNL1        0.1788
     13 N          60.6419   87.3919    9.6111 N.ar    1  UNL1       -0.3068
     14 C          61.6352   85.8366   11.5449 C.3     1  UNL1        0.0565
     15 O          63.1383   84.8738    9.6571 O.3     1  UNL1       -0.3844
     16 C          62.5641   84.7730   11.0392 C.3     1  UNL1        0.1127
     17 H          62.8101   85.6798    9.2286 H       1  UNL1        0.2103
     18 C          62.9190   83.6085   11.9156 C.3     1  UNL1        0.0270
     19 C          63.4738   83.8451   13.2890 C.3     1  UNL1        0.0024
     20 C          63.8287   82.6807   14.1654 C.3     1  UNL1        0.0001
     21 C          63.6286   81.2796   13.6685 C.3     1  UNL1        0.0000
     22 C          63.0738   81.0429   12.2951 C.3     1  UNL1        0.0001
     23 C          62.7189   82.2074   11.4187 C.3     1  UNL1        0.0024
@<TRIPOS>BOND
     1    15    16    1
     2    16    14    1
     3    14     1    1
     4     1     2    1
     5     2     3   ar
     6     3     4    1
     7     3     5   ar
     8     5     6   ar
     9     6     7   ar
    10     7     8   ar
    11     8     9    1
    12     9    10   ar
    13    10    11   ar
    14    11    12   ar
    15    12    13   ar
    16    16    18    1
    17    18    19    1
    18    19    20    1
    19    20    21    1
    20    21    22    1
    21    22    23    1
    22    13     1    1
    23    23    18    1
    24     8     2   ar
    25    13     9   ar
    26    15    17    1
@<TRIPOS>MOLECULE
*****
 23 26 0 0 0
SMALL
GASTEIGER

@<TRIPOS>ATOM
      1 C          63.1710   86.5969   12.5944 C.3     1  UNL1        0.1140
      2 C          63.4469   88.0521   12.8321 C.ar    1  UNL1        0.0273
      3 C          64.2289   88.7647   13.8953 C.ar    1  UNL1        0.1379
      4 F          64.9083   87.9812   14.9790 F       1  UNL1       -0.2044
      5 C          64.3316   90.2612   13.8748 C.ar    1  UNL1        0.0294
      6 C          63.6522   91.0447   12.7912 C.ar    1  UNL1        0.0023
      7 C          62.8701   90.3320   11.7279 C.ar    1  UNL1        0.0014
      8 C          62.7674   88.8357   11.7484 C.ar    1  UNL1        0.0173
      9 C          62.0717   87.8648   10.8409 C.ar    1  UNL1        0.0804
     10 C          61.2219   87.7492    9.6103 C.ar    1  UNL1        0.1178
     11 N          60.9460   86.2941    9.3727 N.ar    1  UNL1       -0.2223
     12 C          61.6254   85.5104   10.4563 C.ar    1  UNL1        0.1788
     13 N          62.3211   86.4812   11.3638 N.ar    1  UNL1       -0.3068
     14 C          63.6593   85.4575   13.4390 C.3     1  UNL1        0.0565
     15 O          61.7362   84.8720   15.0849 O.3     1  UNL1       -0.3844
     16 C          62.6828   84.4639   13.9951 C.3     1  UNL1        0.1127
     17 H          61.8864   85.8030   15.3118 H       1  UNL1        0.2103
     18 C          62.6530   83.0623   13.4616 C.3     1  UNL1        0.0270
     19 C          63.1493   82.7768   12.0753 C.3     1  UNL1        0.0024
     20 C          63.1194   81.3752   11.5417 C.3     1  UNL1        0.0001
     21 C          62.5932   80.2591   12.3946 C.3     1  UNL1        0.0000
     22 C          62.0968   80.5446   13.7811 C.3     1  UNL1        0.0001
     23 C          62.1267   81.9462   14.3146 C.3     1  UNL1        0.0024
@<TRIPOS>BOND
     1    15    16    1
     2    16    14    1
     3    14     1    1
     4     1     2    1
     5     2     3   ar
     6     3     4    1
     7     3     5   ar
     8     5     6   ar
     9     6     7   ar
    10     7     8   ar
    11     8     9    1
    12     9    10   ar
    13    10    11   ar
    14    11    12   ar
    15    12    13   ar
    16    16    18    1
    17    18    19    1
    18    19    20    1
    19    20    21    1
    20    21    22    1
    21    22    23    1
    22    13     1    1
    23    23    18    1
    24     8     2   ar
    25    13     9   ar
    26    15    17    1
@<TRIPOS>MOLECULE
*****
 23 26 0 0 0
SMALL
GASTEIGER

@<TRIPOS>ATOM
      1 C          61.8981   88.6731   11.0571 C.3     1  UNL1        0.1140
      2 C          62.4047   87.3602   11.5764 C.ar    1  UNL1        0.0273
      3 C          63.2747   87.0126   12.7479 C.ar    1  UNL1        0.1379
      4 F          63.7976   88.0975   13.6419 F       1  UNL1       -0.2044
      5 C          63.6217   85.5798   13.0252 C.ar    1  UNL1        0.0294
      6 C          63.0988   84.4949   12.1312 C.ar    1  UNL1        0.0023
      7 C          62.2288   84.8425   10.9597 C.ar    1  UNL1        0.0014
      8 C          61.8818   86.2752   10.6823 C.ar    1  UNL1        0.0173
      9 C          61.0520   86.9175    9.6105 C.ar    1  UNL1        0.0804
     10 C          60.2159   86.6439    8.3955 C.ar    1  UNL1        0.1178
     11 N          59.7093   87.9568    7.8763 N.ar    1  UNL1       -0.2223
     12 C          60.2322   89.0418    8.7703 C.ar    1  UNL1        0.1788
     13 N          61.0620   88.3995    9.8421 N.ar    1  UNL1       -0.3068
     14 C          62.1782   90.0227   11.6489 C.3     1  UNL1        0.0565
     15 O          62.7768   91.3942    9.5250 O.3     1  UNL1       -0.3844
     16 C          63.0835   90.9817   10.9343 C.3     1  UNL1        0.1127
     17 H          61.9655   90.9530    9.2283 H       1  UNL1        0.2103
     18 C          64.2954   91.5284   11.6289 C.3     1  UNL1        0.0270
     19 C          65.2654   92.3909   10.8772 C.3     1  UNL1        0.0024
     20 C          66.4773   92.9376   11.5718 C.3     1  UNL1        0.0001
     21 C          66.7193   92.6217   13.0180 C.3     1  UNL1        0.0000
     22 C          65.7492   91.7590   13.7697 C.3     1  UNL1        0.0001
     23 C          64.5373   91.2124   13.0752 C.3     1  UNL1        0.0024
@<TRIPOS>BOND
     1    15    16    1
     2    16    14    1
     3    14     1    1
     4     1     2    1
     5     2     3   ar
     6     3     4    1
     7     3     5   ar
     8     5     6   ar
     9     6     7   ar
    10     7     8   ar
    11     8     9    1
    12     9    10   ar
    13    10    11   ar
    14    11    12   ar
    15    12    13   ar
    16    16    18    1
    17    18    19    1
    18    19    20    1
    19    20    21    1
    20    21    22    1
    21    22    23    1
    22    13     1    1
    23    23    18    1
    24     8     2   ar
    25    13     9   ar
    26    15    17    1
@<TRIPOS>MOLECULE
*****
 23 26 0 0 0
SMALL
GASTEIGER

@<TRIPOS>ATOM
      1 C          63.5174   87.2831   13.0506 C.3     1  UNL1        0.1140
      2 C          63.5460   85.7932   13.2224 C.ar    1  UNL1        0.0273
      3 C          64.1552   84.9158   14.2755 C.ar    1  UNL1        0.1379
      4 F          64.9016   85.5291   15.4229 F       1  UNL1       -0.2044
      5 C          64.0180   83.4250   14.1810 C.ar    1  UNL1        0.0294
      6 C          63.2716   82.8118   13.0335 C.ar    1  UNL1        0.0023
      7 C          62.6624   83.6892   11.9805 C.ar    1  UNL1        0.0014
      8 C          62.7995   85.1799   12.0749 C.ar    1  UNL1        0.0173
      9 C          62.3097   86.2908   11.1939 C.ar    1  UNL1        0.0804
     10 C          61.5456   86.5982    9.9402 C.ar    1  UNL1        0.1178
     11 N          61.5171   88.0881    9.7685 N.ar    1  UNL1       -0.2223
     12 C          62.2635   88.7014   10.9160 C.ar    1  UNL1        0.1788
     13 N          62.7533   87.5906   11.7969 N.ar    1  UNL1       -0.3068
     14 C          64.1431   88.2889   13.9709 C.3     1  UNL1        0.0565
     15 O          62.2588   90.0473   14.2992 O.3     1  UNL1       -0.3844
     16 C          63.6793   89.7152   13.9498 C.3     1  UNL1        0.1127
     17 H          61.7791   89.2315   14.5123 H       1  UNL1        0.2103
     18 C          64.6359   90.8096   13.5794 C.3     1  UNL1        0.0270
     19 C          64.4270   91.5931   12.3175 C.3     1  UNL1        0.0024
     20 C          65.3836   92.6874   11.9471 C.3     1  UNL1        0.0001
     21 C          66.5493   92.9982   12.8385 C.3     1  UNL1        0.0000
     22 C          66.7583   92.2147   14.1004 C.3     1  UNL1        0.0001
     23 C          65.8016   91.1203   14.4709 C.3     1  UNL1        0.0024
@<TRIPOS>BOND
     1    15    16    1
     2    16    14    1
     3    14     1    1
     4     1     2    1
     5     2     3   ar
     6     3     4    1
     7     3     5   ar
     8     5     6   ar
     9     6     7   ar
    10     7     8   ar
    11     8     9    1
    12     9    10   ar
    13    10    11   ar
    14    11    12   ar
    15    12    13   ar
    16    16    18    1
    17    18    19    1
    18    19    20    1
    19    20    21    1
    20    21    22    1
    21    22    23    1
    22    13     1    1
    23    23    18    1
    24     8     2   ar
    25    13     9   ar
    26    15    17    1
@<TRIPOS>MOLECULE
*****
 23 26 0 0 0
SMALL
GASTEIGER

@<TRIPOS>ATOM
      1 C          61.6382   88.3019   11.0624 C.3     1  UNL1        0.1140
      2 C          60.8667   88.0084    9.8098 C.ar    1  UNL1        0.0273
      3 C          60.0453   88.8823    8.9090 C.ar    1  UNL1        0.1379
      4 F          59.8930   90.3426    9.2156 F       1  UNL1       -0.2044
      5 C          59.3761   88.2957    7.7014 C.ar    1  UNL1        0.0294
      6 C          59.5284   86.8354    7.3948 C.ar    1  UNL1        0.0023
      7 C          60.3498   85.9615    8.2957 C.ar    1  UNL1        0.0014
      8 C          61.0190   86.5480    9.5032 C.ar    1  UNL1        0.0173
      9 C          61.8845   85.9389   10.5662 C.ar    1  UNL1        0.0804
     10 C          62.5136   84.6599   11.0335 C.ar    1  UNL1        0.1178
     11 N          63.2850   84.9535   12.2860 N.ar    1  UNL1       -0.2223
     12 C          63.1328   86.4139   12.5927 C.ar    1  UNL1        0.1788
     13 N          62.2672   87.0229   11.5298 N.ar    1  UNL1       -0.3068
     14 C          61.7593   89.6396   11.7302 C.3     1  UNL1        0.0565
     15 O          62.7501   91.2064    9.9099 O.3     1  UNL1       -0.3844
     16 C          62.8143   90.6079   11.2838 C.3     1  UNL1        0.1127
     17 H          61.9708   90.8644    9.4443 H       1  UNL1        0.2103
     18 C          63.9337   90.9778   12.2114 C.3     1  UNL1        0.0270
     19 C          64.0898   90.2630   13.5208 C.3     1  UNL1        0.0024
     20 C          65.2091   90.6329   14.4484 C.3     1  UNL1        0.0001
     21 C          66.1723   91.7174   14.0665 C.3     1  UNL1        0.0000
     22 C          66.0162   92.4322   12.7569 C.3     1  UNL1        0.0001
     23 C          64.8969   92.0624   11.8294 C.3     1  UNL1        0.0024
@<TRIPOS>BOND
     1    15    16    1
     2    16    14    1
     3    14     1    1
     4     1     2    1
     5     2     3   ar
     6     3     4    1
     7     3     5   ar
     8     5     6   ar
     9     6     7   ar
    10     7     8   ar
    11     8     9    1
    12     9    10   ar
    13    10    11   ar
    14    11    12   ar
    15    12    13   ar
    16    16    18    1
    17    18    19    1
    18    19    20    1
    19    20    21    1
    20    21    22    1
    21    22    23    1
    22    13     1    1
    23    23    18    1
    24     8     2   ar
    25    13     9   ar
    26    15    17    1
@<TRIPOS>MOLECULE
*****
 23 26 0 0 0
SMALL
GASTEIGER

@<TRIPOS>ATOM
      1 C          63.2034   88.3962   12.1411 C.3     1  UNL1        0.1140
      2 C          63.4976   87.2334   13.0420 C.ar    1  UNL1        0.0273
      3 C          63.3267   85.7543   12.8600 C.ar    1  UNL1        0.1379
      4 F          62.7652   85.2164   11.5773 F       1  UNL1       -0.2044
      5 C          63.7173   84.8131   13.9608 C.ar    1  UNL1        0.0294
      6 C          64.2788   85.3511   15.2434 C.ar    1  UNL1        0.0023
      7 C          64.4497   86.8302   15.4254 C.ar    1  UNL1        0.0014
      8 C          64.0591   87.7714   14.3247 C.ar    1  UNL1        0.0173
      9 C          64.1119   89.2665   14.2166 C.ar    1  UNL1        0.0804
     10 C          64.4917   90.5230   14.9425 C.ar    1  UNL1        0.1178
     11 N          64.1975   91.6857   14.0417 N.ar    1  UNL1       -0.2223
     12 C          63.6359   91.1478   12.7589 C.ar    1  UNL1        0.1788
     13 N          63.5831   89.6526   12.8670 N.ar    1  UNL1       -0.3068
     14 C          62.6301   88.3164   10.7572 C.3     1  UNL1        0.0565
     15 O          60.3138   87.3625   11.4464 O.3     1  UNL1       -0.3844
     16 C          61.4602   87.4193   10.4806 C.3     1  UNL1        0.1127
     17 H          60.4869   87.9617   12.1893 H       1  UNL1        0.2103
     18 C          61.4365   86.5791    9.2382 C.3     1  UNL1        0.0270
     19 C          62.6825   85.8795    8.7822 C.3     1  UNL1        0.0024
     20 C          62.6588   85.0393    7.5398 C.3     1  UNL1        0.0001
     21 C          61.3892   84.8988    6.7535 C.3     1  UNL1        0.0000
     22 C          60.1432   85.5985    7.2095 C.3     1  UNL1        0.0001
     23 C          60.1669   86.4387    8.4519 C.3     1  UNL1        0.0024
@<TRIPOS>BOND
     1    15    16    1
     2    16    14    1
     3    14     1    1
     4     1     2    1
     5     2     3   ar
     6     3     4    1
     7     3     5   ar
     8     5     6   ar
     9     6     7   ar
    10     7     8   ar
    11     8     9    1
    12     9    10   ar
    13    10    11   ar
    14    11    12   ar
    15    12    13   ar
    16    16    18    1
    17    18    19    1
    18    19    20    1
    19    20    21    1
    20    21    22    1
    21    22    23    1
    22    13     1    1
    23    23    18    1
    24     8     2   ar
    25    13     9   ar
    26    15    17    1
@<TRIPOS>MOLECULE
*****
 23 26 0 0 0
SMALL
GASTEIGER

@<TRIPOS>ATOM
      1 C          62.6718   86.3144   11.7344 C.3     1  UNL1        0.1140
      2 C          62.4188   87.6853   11.1804 C.ar    1  UNL1        0.0273
      3 C          61.7157   88.1528    9.9407 C.ar    1  UNL1        0.1379
      4 F          61.1107   87.1537    8.9996 F       1  UNL1       -0.2044
      5 C          61.6175   89.6195    9.6421 C.ar    1  UNL1        0.0294
      6 C          62.2225   90.6186   10.5832 C.ar    1  UNL1        0.0023
      7 C          62.9256   90.1511   11.8230 C.ar    1  UNL1        0.0014
      8 C          63.0237   88.6844   12.1216 C.ar    1  UNL1        0.0173
      9 C          63.6506   87.9310   13.2572 C.ar    1  UNL1        0.0804
     10 C          64.4120   88.0830   14.5407 C.ar    1  UNL1        0.1178
     11 N          64.6650   86.7122   15.0945 N.ar    1  UNL1       -0.2223
     12 C          64.0600   85.7130   14.1534 C.ar    1  UNL1        0.1788
     13 N          63.4331   86.4663   13.0178 N.ar    1  UNL1       -0.3068
     14 C          62.2394   85.0190   11.1138 C.3     1  UNL1        0.0565
     15 O          64.3877   83.7793   10.3406 O.3     1  UNL1       -0.3844
     16 C          63.1405   83.8214   11.1730 C.3     1  UNL1        0.1127
     17 H          64.4612   84.5985    9.8265 H       1  UNL1        0.2103
     18 C          62.7945   82.6658   12.0645 C.3     1  UNL1        0.0270
     19 C          62.9295   81.2606   11.5574 C.3     1  UNL1        0.0024
     20 C          62.5835   80.1050   12.4490 C.3     1  UNL1        0.0001
     21 C          62.1025   80.3546   13.8476 C.3     1  UNL1        0.0000
     22 C          61.9675   81.7598   14.3548 C.3     1  UNL1        0.0001
     23 C          62.3135   82.9154   13.4632 C.3     1  UNL1        0.0024
@<TRIPOS>BOND
     1    15    16    1
     2    16    14    1
     3    14     1    1
     4     1     2    1
     5     2     3   ar
     6     3     4    1
     7     3     5   ar
     8     5     6   ar
     9     6     7   ar
    10     7     8   ar
    11     8     9    1
    12     9    10   ar
    13    10    11   ar
    14    11    12   ar
    15    12    13   ar
    16    16    18    1
    17    18    19    1
    18    19    20    1
    19    20    21    1
    20    21    22    1
    21    22    23    1
    22    13     1    1
    23    23    18    1
    24     8     2   ar
    25    13     9   ar
    26    15    17    1
@<TRIPOS>MOLECULE
*****
 23 26 0 0 0
SMALL
GASTEIGER

@<TRIPOS>ATOM
      1 C          63.5123   86.7071   12.9975 C.3     1  UNL1        0.1140
      2 C          62.7125   86.7756   11.7303 C.ar    1  UNL1        0.0273
      3 C          62.1685   85.7080   10.8279 C.ar    1  UNL1        0.1379
      4 F          62.4042   84.2621   11.1496 F       1  UNL1       -0.2044
      5 C          61.3887   86.0866    9.6036 C.ar    1  UNL1        0.0294
      6 C          61.1530   87.5325    9.2820 C.ar    1  UNL1        0.0023
      7 C          61.6970   88.6001   10.1844 C.ar    1  UNL1        0.0014
      8 C          62.4768   88.2216   11.4086 C.ar    1  UNL1        0.0173
      9 C          63.1308   89.0468   12.4769 C.ar    1  UNL1        0.0804
     10 C          63.3894   90.4505   12.9383 C.ar    1  UNL1        0.1178
     11 N          64.1891   90.3819   14.2054 N.ar    1  UNL1       -0.2223
     12 C          64.4248   88.9360   14.5272 C.ar    1  UNL1        0.1788
     13 N          63.7708   88.1108   13.4589 N.ar    1  UNL1       -0.3068
     14 C          63.9726   85.4548   13.6830 C.3     1  UNL1        0.0565
     15 O          62.1642   85.1978   15.5306 O.3     1  UNL1       -0.3844
     16 C          62.9885   84.6024   14.4278 C.3     1  UNL1        0.1127
     17 H          62.3891   86.1359   15.6320 H       1  UNL1        0.2103
     18 C          62.8287   83.1545   14.0700 C.3     1  UNL1        0.0270
     19 C          61.5875   82.4149   14.4728 C.3     1  UNL1        0.0024
     20 C          61.4277   80.9670   14.1150 C.3     1  UNL1        0.0001
     21 C          62.5091   80.2587   13.3543 C.3     1  UNL1        0.0000
     22 C          63.7505   80.9982   12.9514 C.3     1  UNL1        0.0001
     23 C          63.9103   82.4461   13.3093 C.3     1  UNL1        0.0024
@<TRIPOS>BOND
     1    15    16    1
     2    16    14    1
     3    14     1    1
     4     1     2    1
     5     2     3   ar
     6     3     4    1
     7     3     5   ar
     8     5     6   ar
     9     6     7   ar
    10     7     8   ar
    11     8     9    1
    12     9    10   ar
    13    10    11   ar
    14    11    12   ar
    15    12    13   ar
    16    16    18    1
    17    18    19    1
    18    19    20    1
    19    20    21    1
    20    21    22    1
    21    22    23    1
    22    13     1    1
    23    23    18    1
    24     8     2   ar
    25    13     9   ar
    26    15    17    1
@<TRIPOS>MOLECULE
*****
 23 26 0 0 0
SMALL
GASTEIGER

@<TRIPOS>ATOM
      1 C          63.1688   88.4967   12.2731 C.3     1  UNL1        0.1140
      2 C          62.3975   87.8683   11.1504 C.ar    1  UNL1        0.0273
      3 C          61.7138   88.4545    9.9509 C.ar    1  UNL1        0.1379
      4 F          61.7374   89.9370    9.7241 F       1  UNL1       -0.2044
      5 C          61.0063   87.5581    8.9783 C.ar    1  UNL1        0.0294
      6 C          60.9827   86.0756    9.2052 C.ar    1  UNL1        0.0023
      7 C          61.6664   85.4894   10.4047 C.ar    1  UNL1        0.0014
      8 C          62.3739   86.3857   11.3774 C.ar    1  UNL1        0.0173
      9 C          63.1305   86.0979   12.6402 C.ar    1  UNL1        0.0804
     10 C          63.5834   85.0037   13.5608 C.ar    1  UNL1        0.1178
     11 N          64.3546   85.6322   14.6834 N.ar    1  UNL1       -0.2223
     12 C          64.3783   87.1147   14.4566 C.ar    1  UNL1        0.1788
     13 N          63.6217   87.4026   13.1938 N.ar    1  UNL1       -0.3068
     14 C          63.4395   89.9621   12.4449 C.3     1  UNL1        0.0565
     15 O          62.6487   90.1927   14.9089 O.3     1  UNL1       -0.3844
     16 C          63.6208   90.5352   13.8191 C.3     1  UNL1        0.1127
     17 H          61.9692   89.5947   14.5600 H       1  UNL1        0.2103
     18 C          64.7743   91.4509   14.1037 C.3     1  UNL1        0.0270
     19 C          65.2169   91.6825   15.5180 C.3     1  UNL1        0.0024
     20 C          66.3704   92.5982   15.8025 C.3     1  UNL1        0.0001
     21 C          67.0813   93.2823   14.6727 C.3     1  UNL1        0.0000
     22 C          66.6388   93.0507   13.2583 C.3     1  UNL1        0.0001
     23 C          65.4853   92.1350   12.9737 C.3     1  UNL1        0.0024
@<TRIPOS>BOND
     1    15    16    1
     2    16    14    1
     3    14     1    1
     4     1     2    1
     5     2     3   ar
     6     3     4    1
     7     3     5   ar
     8     5     6   ar
     9     6     7   ar
    10     7     8   ar
    11     8     9    1
    12     9    10   ar
    13    10    11   ar
    14    11    12   ar
    15    12    13   ar
    16    16    18    1
    17    18    19    1
    18    19    20    1
    19    20    21    1
    20    21    22    1
    21    22    23    1
    22    13     1    1
    23    23    18    1
    24     8     2   ar
    25    13     9   ar
    26    15    17    1
