@<TRIPOS>MOLECULE
*****
 28 30 0 0 0
SMALL
GASTEIGER

@<TRIPOS>ATOM
      1 N          62.6073   89.1186   11.4927 N.ar    1  UNL1       -0.3190
      2 C          63.1007   87.9709   12.3230 C.ar    1  UNL1        0.0823
      3 C          62.5108   86.7090   11.7664 C.ar    1  UNL1        0.0895
      4 C          61.6529   87.0769   10.5922 C.ar    1  UNL1        0.1028
      5 N          60.8251   86.2482    9.6552 N.ar    1  UNL1       -0.2425
      6 C          60.0570   86.9087    8.5491 C.ar    1  UNL1        0.0946
      7 C          60.1167   88.3980    8.3799 C.ar    1  UNL1       -0.0013
      8 C          59.3485   89.0585    7.2737 C.3     1  UNL1        0.0327
      9 C          60.9445   89.2267    9.3169 C.ar    1  UNL1        0.0160
     10 C          61.7126   88.5661   10.4231 C.ar    1  UNL1        0.0780
     11 C          62.7388   85.3226   12.2918 C.2     1  UNL1        0.2490
     12 O          63.1430   85.1195   13.7219 O.2     1  UNL1       -0.2700
     13 N          62.5624   84.1392   11.3870 N.am    1  UNL1       -0.2959
     14 H          62.2971   84.2725   10.4483 H       1  UNL1        0.1499
     15 C          62.7904   82.7529   11.9123 C.3     1  UNL1        0.1627
     16 C          63.3826   81.7013   11.0216 C.3     1  UNL1        0.3378
     17 F          62.8341   80.3053   11.0422 F       1  UNL1       -0.1965
     18 F          64.5231   82.0457   10.1103 F       1  UNL1       -0.1965
     19 C          62.9488   90.5650   11.6964 C.3     1  UNL1        0.1518
     20 C          65.6705   92.3001   14.0054 C.ar    1  UNL1        0.2234
     21 N          65.2222   91.8455   15.3628 N.ar    1  UNL1       -0.1896
     22 C          64.0161   90.9640   15.4979 C.ar    1  UNL1        0.2012
     23 N          63.2583   90.5372   14.2759 N.ar    1  UNL1       -0.2265
     24 C          63.7066   90.9918   12.9186 C.ar    1  UNL1        0.0841
     25 C          64.9127   91.8733   12.7834 C.ar    1  UNL1        0.0468
     26 C          65.3610   92.3279   11.4260 C.3     1  UNL1        0.0372
     27 C          67.7167   93.4930   15.0733 C.3     1  UNL1        0.2542
     28 O          66.8767   93.1816   13.8703 O.3     1  UNL1       -0.4563
@<TRIPOS>BOND
     1    27    28    1
     2    28    20    1
     3    20    21   ar
     4    21    22   ar
     5    22    23   ar
     6    23    24   ar
     7    24    19    1
     8    19     1    1
     9     1     2   ar
    10     2     3   ar
    11     3    11    1
    12    11    12    2
    13    11    13   am
    14    13    15    1
    15    15    16    1
    16    16    17    1
    17    16    18    1
    18     3     4   ar
    19     4     5   ar
    20     5     6   ar
    21     6     7   ar
    22     7     8    1
    23     7     9   ar
    24     9    10   ar
    25    24    25   ar
    26    25    26    1
    27    25    20   ar
    28    10     1   ar
    29    10     4   ar
    30    13    14    1
@<TRIPOS>MOLECULE
*****
 28 30 0 0 0
SMALL
GASTEIGER

@<TRIPOS>ATOM
      1 N          62.8807   90.8968   11.2730 N.ar    1  UNL1       -0.3190
      2 C          63.7847   91.7557   10.4393 C.ar    1  UNL1        0.0823
      3 C          64.8932   92.2526   11.3192 C.ar    1  UNL1        0.0895
      4 C          64.6743   91.7007   12.6968 C.ar    1  UNL1        0.1028
      5 N          65.4469   91.8530   13.9734 N.ar    1  UNL1       -0.2425
      6 C          64.9757   91.1674   15.2215 C.ar    1  UNL1        0.0946
      7 C          63.7319   90.3294   15.1929 C.ar    1  UNL1       -0.0013
      8 C          63.2607   89.6438   16.4411 C.3     1  UNL1        0.0327
      9 C          62.9593   90.1772   13.9163 C.ar    1  UNL1        0.0160
     10 C          63.4305   90.8628   12.6682 C.ar    1  UNL1        0.0780
     11 C          66.0224   93.1446   10.8959 C.2     1  UNL1        0.2490
     12 O          67.4366   92.6502   10.9686 O.2     1  UNL1       -0.2700
     13 N          65.7372   94.5313   10.3999 N.am    1  UNL1       -0.2959
     14 H          64.8090   94.8559   10.3522 H       1  UNL1        0.1499
     15 C          66.8664   95.4234    9.9766 C.3     1  UNL1        0.1627
     16 C          67.4227   95.3211    8.5874 C.3     1  UNL1        0.3378
     17 F          67.6744   96.5644    7.7869 F       1  UNL1       -0.1965
     18 F          67.7273   93.9755    7.9986 F       1  UNL1       -0.1965
     19 C          61.6440   90.1950   10.7955 C.3     1  UNL1        0.1518
     20 C          60.9186   86.6038    9.2698 C.ar    1  UNL1        0.2234
     21 N          61.6653   85.7302   10.2338 N.ar    1  UNL1       -0.1896
     22 C          62.4049   86.3449   11.3849 C.ar    1  UNL1        0.2012
     23 N          62.3978   87.8331   11.5722 N.ar    1  UNL1       -0.2265
     24 C          61.6511   88.7067   10.6082 C.ar    1  UNL1        0.0841
     25 C          60.9115   88.0920    9.4571 C.ar    1  UNL1        0.0468
     26 C          60.1648   88.9657    8.4931 C.3     1  UNL1        0.0372
     27 C          60.9339   85.2687    7.0411 C.3     1  UNL1        0.2542
     28 O          60.1790   85.9892    8.1186 O.3     1  UNL1       -0.4563
@<TRIPOS>BOND
     1    27    28    1
     2    28    20    1
     3    20    21   ar
     4    21    22   ar
     5    22    23   ar
     6    23    24   ar
     7    24    19    1
     8    19     1    1
     9     1     2   ar
    10     2     3   ar
    11     3    11    1
    12    11    12    2
    13    11    13   am
    14    13    15    1
    15    15    16    1
    16    16    17    1
    17    16    18    1
    18     3     4   ar
    19     4     5   ar
    20     5     6   ar
    21     6     7   ar
    22     7     8    1
    23     7     9   ar
    24     9    10   ar
    25    24    25   ar
    26    25    26    1
    27    25    20   ar
    28    10     1   ar
    29    10     4   ar
    30    13    14    1
@<TRIPOS>MOLECULE
*****
 28 30 0 0 0
SMALL
GASTEIGER

@<TRIPOS>ATOM
      1 N          63.0966   89.9380   12.2667 N.ar    1  UNL1       -0.3190
      2 C          62.3476   89.8542   10.9698 C.ar    1  UNL1        0.0823
      3 C          62.1184   88.4046   10.6598 C.ar    1  UNL1        0.0895
      4 C          62.7257   87.5925   11.7651 C.ar    1  UNL1        0.1028
      5 N          62.8063   86.1125   11.9956 N.ar    1  UNL1       -0.2425
      6 C          63.4914   85.5803   13.2192 C.ar    1  UNL1        0.0946
      7 C          64.0960   86.5280   14.2123 C.ar    1  UNL1       -0.0013
      8 C          64.7811   85.9956   15.4360 C.3     1  UNL1        0.0327
      9 C          64.0154   88.0080   13.9819 C.ar    1  UNL1        0.0160
     10 C          63.3302   88.5402   12.7583 C.ar    1  UNL1        0.0780
     11 C          61.4069   87.8623    9.4558 C.2     1  UNL1        0.2490
     12 O          60.4290   88.7225    8.7118 O.2     1  UNL1       -0.2700
     13 N          61.6732   86.4595    8.9959 N.am    1  UNL1       -0.2959
     14 H          62.3150   85.8948    9.4842 H       1  UNL1        0.1499
     15 C          60.9616   85.9172    7.7919 C.3     1  UNL1        0.1627
     16 C          61.6439   84.9193    6.9038 C.3     1  UNL1        0.3378
     17 F          63.1287   84.7264    6.9947 F       1  UNL1       -0.1965
     18 F          60.8415   84.1144    5.9249 F       1  UNL1       -0.1965
     19 C          63.5349   91.1983   12.9519 C.3     1  UNL1        0.1518
     20 C          67.0885   92.5806   11.8511 C.ar    1  UNL1        0.2234
     21 N          67.8989   92.2891   13.0793 N.ar    1  UNL1       -0.1896
     22 C          67.2547   91.6340   14.2649 C.ar    1  UNL1        0.2012
     23 N          65.8000   91.2704   14.2225 N.ar    1  UNL1       -0.2265
     24 C          64.9897   91.5619   12.9944 C.ar    1  UNL1        0.0841
     25 C          65.6339   92.2170   11.8087 C.ar    1  UNL1        0.0468
     26 C          64.8235   92.5085   10.5806 C.3     1  UNL1        0.0372
     27 C          68.4595   92.4029    9.6514 C.3     1  UNL1        0.2542
     28 O          67.7328   93.2357   10.6655 O.3     1  UNL1       -0.4563
@<TRIPOS>BOND
     1    27    28    1
     2    28    20    1
     3    20    21   ar
     4    21    22   ar
     5    22    23   ar
     6    23    24   ar
     7    24    19    1
     8    19     1    1
     9     1     2   ar
    10     2     3   ar
    11     3    11    1
    12    11    12    2
    13    11    13   am
    14    13    15    1
    15    15    16    1
    16    16    17    1
    17    16    18    1
    18     3     4   ar
    19     4     5   ar
    20     5     6   ar
    21     6     7   ar
    22     7     8    1
    23     7     9   ar
    24     9    10   ar
    25    24    25   ar
    26    25    26    1
    27    25    20   ar
    28    10     1   ar
    29    10     4   ar
    30    13    14    1
@<TRIPOS>MOLECULE
*****
 28 30 0 0 0
SMALL
GASTEIGER

@<TRIPOS>ATOM
      1 N          62.0558   88.6825   11.3098 N.ar    1  UNL1       -0.3190
      2 C          62.7194   87.5024   11.9557 C.ar    1  UNL1        0.0823
      3 C          62.3681   86.2803   11.1600 C.ar    1  UNL1        0.0895
      4 C          61.4875   86.7051   10.0224 C.ar    1  UNL1        0.1028
      5 N          60.8365   85.9318    8.9142 N.ar    1  UNL1       -0.2425
      6 C          59.9924   86.6432    7.8986 C.ar    1  UNL1        0.0946
      7 C          59.7994   88.1278    7.9912 C.ar    1  UNL1       -0.0013
      8 C          58.9552   88.8392    6.9756 C.3     1  UNL1        0.0327
      9 C          60.4504   88.9011    9.0994 C.ar    1  UNL1        0.0160
     10 C          61.2945   88.1897   10.1150 C.ar    1  UNL1        0.0780
     11 C          62.8185   84.8794   11.4508 C.2     1  UNL1        0.2490
     12 O          63.4023   84.0367   10.3559 O.2     1  UNL1       -0.2700
     13 N          62.6849   84.3211   12.8367 N.am    1  UNL1       -0.2959
     14 H          62.3016   84.8741   13.5554 H       1  UNL1        0.1499
     15 C          63.1352   82.9201   13.1275 C.3     1  UNL1        0.1627
     16 C          62.3535   81.7556   12.5958 C.3     1  UNL1        0.3378
     17 F          61.1803   81.2256   13.3656 F       1  UNL1       -0.1965
     18 F          62.7451   81.1209   11.2943 F       1  UNL1       -0.1965
     19 C          62.1389   90.1055   11.7768 C.3     1  UNL1        0.1518
     20 C          65.2121   91.7145   13.7048 C.ar    1  UNL1        0.2234
     21 N          64.9612   91.2220   15.0993 N.ar    1  UNL1       -0.1896
     22 C          63.7696   90.3574   15.3862 C.ar    1  UNL1        0.2012
     23 N          62.8288   89.9852   14.2788 N.ar    1  UNL1       -0.2265
     24 C          63.0797   90.4777   12.8844 C.ar    1  UNL1        0.0841
     25 C          64.2714   91.3423   12.5974 C.ar    1  UNL1        0.0468
     26 C          64.5222   91.8348   11.2029 C.3     1  UNL1        0.0372
     27 C          66.8532   93.5953   14.4256 C.3     1  UNL1        0.2542
     28 O          66.4038   92.5792   13.4179 O.3     1  UNL1       -0.4563
@<TRIPOS>BOND
     1    27    28    1
     2    28    20    1
     3    20    21   ar
     4    21    22   ar
     5    22    23   ar
     6    23    24   ar
     7    24    19    1
     8    19     1    1
     9     1     2   ar
    10     2     3   ar
    11     3    11    1
    12    11    12    2
    13    11    13   am
    14    13    15    1
    15    15    16    1
    16    16    17    1
    17    16    18    1
    18     3     4   ar
    19     4     5   ar
    20     5     6   ar
    21     6     7   ar
    22     7     8    1
    23     7     9   ar
    24     9    10   ar
    25    24    25   ar
    26    25    26    1
    27    25    20   ar
    28    10     1   ar
    29    10     4   ar
    30    13    14    1
@<TRIPOS>MOLECULE
*****
 28 30 0 0 0
SMALL
GASTEIGER

@<TRIPOS>ATOM
      1 N          63.0003   89.8187   12.0830 N.ar    1  UNL1       -0.3190
      2 C          62.2602   89.7014   10.7836 C.ar    1  UNL1        0.0823
      3 C          62.0423   88.2439   10.5042 C.ar    1  UNL1        0.0895
      4 C          62.6477   87.4604   11.6310 C.ar    1  UNL1        0.1028
      5 N          62.7362   85.9864   11.8946 N.ar    1  UNL1       -0.2425
      6 C          63.4169   85.4857   13.1339 C.ar    1  UNL1        0.0946
      7 C          64.0090   86.4590   14.1097 C.ar    1  UNL1       -0.0013
      8 C          64.6897   85.9583   15.3491 C.3     1  UNL1        0.0327
      9 C          63.9204   87.9330   13.8461 C.ar    1  UNL1        0.0160
     10 C          63.2398   88.4337   12.6068 C.ar    1  UNL1        0.0780
     11 C          61.3420   87.6705    9.3081 C.2     1  UNL1        0.2490
     12 O          60.3290   88.4917    8.5669 O.2     1  UNL1       -0.2700
     13 N          61.6546   86.2757    8.8531 N.am    1  UNL1       -0.2959
     14 H          62.3195   85.7367    9.3395 H       1  UNL1        0.1499
     15 C          60.9543   85.7023    7.6569 C.3     1  UNL1        0.1627
     16 C          61.6922   84.7914    6.7211 C.3     1  UNL1        0.3378
     17 F          63.1821   84.6544    6.8273 F       1  UNL1       -0.1965
     18 F          60.9402   84.0176    5.6792 F       1  UNL1       -0.1965
     19 C          63.4262   91.0967   12.7429 C.3     1  UNL1        0.1518
     20 C          67.1733   92.3459   13.1294 C.ar    1  UNL1        0.2234
     21 N          67.4262   92.9106   11.7630 N.ar    1  UNL1       -0.1896
     22 C          66.3458   92.8707   10.7232 C.ar    1  UNL1        0.2012
     23 N          65.0125   92.2661   11.0498 N.ar    1  UNL1       -0.2265
     24 C          64.7596   91.7014   12.4162 C.ar    1  UNL1        0.0841
     25 C          65.8400   91.7412   13.4560 C.ar    1  UNL1        0.0468
     26 C          65.5870   91.1765   14.8224 C.3     1  UNL1        0.0372
     27 C          68.2060   93.4128   15.2613 C.3     1  UNL1        0.2542
     28 O          68.2537   92.3857   14.1691 O.3     1  UNL1       -0.4563
@<TRIPOS>BOND
     1    27    28    1
     2    28    20    1
     3    20    21   ar
     4    21    22   ar
     5    22    23   ar
     6    23    24   ar
     7    24    19    1
     8    19     1    1
     9     1     2   ar
    10     2     3   ar
    11     3    11    1
    12    11    12    2
    13    11    13   am
    14    13    15    1
    15    15    16    1
    16    16    17    1
    17    16    18    1
    18     3     4   ar
    19     4     5   ar
    20     5     6   ar
    21     6     7   ar
    22     7     8    1
    23     7     9   ar
    24     9    10   ar
    25    24    25   ar
    26    25    26    1
    27    25    20   ar
    28    10     1   ar
    29    10     4   ar
    30    13    14    1
@<TRIPOS>MOLECULE
*****
 28 30 0 0 0
SMALL
GASTEIGER

@<TRIPOS>ATOM
      1 N          63.0603   90.1985   12.1338 N.ar    1  UNL1       -0.3190
      2 C          62.2473   90.2274   10.8735 C.ar    1  UNL1        0.0823
      3 C          61.9239   88.8117   10.4980 C.ar    1  UNL1        0.0895
      4 C          62.5371   87.9077   11.5261 C.ar    1  UNL1        0.1028
      5 N          62.5465   86.4149   11.6723 N.ar    1  UNL1       -0.2425
      6 C          63.2584   85.7792   12.8295 C.ar    1  UNL1        0.0946
      7 C          63.9607   86.6363   13.8405 C.ar    1  UNL1       -0.0013
      8 C          64.6726   86.0006   14.9977 C.3     1  UNL1        0.0327
      9 C          63.9512   88.1291   13.6943 C.ar    1  UNL1        0.0160
     10 C          63.2394   88.7648   12.5371 C.ar    1  UNL1        0.0780
     11 C          61.1273   88.3762    9.3039 C.2     1  UNL1        0.2490
     12 O          61.1685   86.9454    8.8560 O.2     1  UNL1       -0.2700
     13 N          60.2892   89.3718    8.5578 N.am    1  UNL1       -0.2959
     14 H          60.2621   90.3110    8.8518 H       1  UNL1        0.1499
     15 C          59.4926   88.9364    7.3638 C.3     1  UNL1        0.1627
     16 C          59.3037   89.8719    6.2066 C.3     1  UNL1        0.3378
     17 F          60.4950   90.3730    5.4452 F       1  UNL1       -0.1965
     18 F          57.9237   90.3063    5.8107 F       1  UNL1       -0.1965
     19 C          63.5996   91.3934   12.8627 C.3     1  UNL1        0.1518
     20 C          67.2342   92.5347   11.7503 C.ar    1  UNL1        0.2234
     21 N          68.0334   92.1562   12.9619 N.ar    1  UNL1       -0.1896
     22 C          67.3547   91.5235   14.1405 C.ar    1  UNL1        0.2012
     23 N          65.8768   91.2692   14.1075 N.ar    1  UNL1       -0.2265
     24 C          65.0776   91.6476   12.8958 C.ar    1  UNL1        0.0841
     25 C          65.7563   92.2804   11.7173 C.ar    1  UNL1        0.0468
     26 C          64.9571   92.6588   10.5056 C.3     1  UNL1        0.0372
     27 C          68.4394   92.3093    9.4598 C.3     1  UNL1        0.2542
     28 O          67.9129   93.1674   10.5717 O.3     1  UNL1       -0.4563
@<TRIPOS>BOND
     1    27    28    1
     2    28    20    1
     3    20    21   ar
     4    21    22   ar
     5    22    23   ar
     6    23    24   ar
     7    24    19    1
     8    19     1    1
     9     1     2   ar
    10     2     3   ar
    11     3    11    1
    12    11    12    2
    13    11    13   am
    14    13    15    1
    15    15    16    1
    16    16    17    1
    17    16    18    1
    18     3     4   ar
    19     4     5   ar
    20     5     6   ar
    21     6     7   ar
    22     7     8    1
    23     7     9   ar
    24     9    10   ar
    25    24    25   ar
    26    25    26    1
    27    25    20   ar
    28    10     1   ar
    29    10     4   ar
    30    13    14    1
@<TRIPOS>MOLECULE
*****
 28 30 0 0 0
SMALL
GASTEIGER

@<TRIPOS>ATOM
      1 N          62.9421   90.0378   12.0771 N.ar    1  UNL1       -0.3190
      2 C          62.1035   90.1064   10.8353 C.ar    1  UNL1        0.0823
      3 C          61.7602   88.7036   10.4299 C.ar    1  UNL1        0.0895
      4 C          62.3866   87.7681   11.4211 C.ar    1  UNL1        0.1028
      5 N          62.3861   86.2720   11.5281 N.ar    1  UNL1       -0.2425
      6 C          63.1162   85.6004   12.6532 C.ar    1  UNL1        0.0946
      7 C          63.8467   86.4250   13.6713 C.ar    1  UNL1       -0.0013
      8 C          64.5768   85.7533   14.7965 C.3     1  UNL1        0.0327
      9 C          63.8471   87.9211   13.5642 C.ar    1  UNL1        0.0160
     10 C          63.1170   88.5927   12.4391 C.ar    1  UNL1        0.0780
     11 C          60.9353   88.3061    9.2418 C.2     1  UNL1        0.2490
     12 O          60.8291   86.8617    8.8518 O.2     1  UNL1       -0.2700
     13 N          60.2164   89.3533    8.4436 N.am    1  UNL1       -0.2959
     14 H          60.2861   90.3014    8.6995 H       1  UNL1        0.1499
     15 C          59.3915   88.9558    7.2555 C.3     1  UNL1        0.1627
     16 C          59.2299   89.9032    6.1040 C.3     1  UNL1        0.3378
     17 F          57.8605   90.3557    5.6916 F       1  UNL1       -0.1965
     18 F          60.4375   90.3983    5.3648 F       1  UNL1       -0.1965
     19 C          63.5067   91.2087   12.8255 C.3     1  UNL1        0.1518
     20 C          67.3259   92.2626   13.0574 C.ar    1  UNL1        0.2234
     21 N          67.5360   92.8672   11.7008 N.ar    1  UNL1       -0.1896
     22 C          66.4030   92.9189   10.7191 C.ar    1  UNL1        0.2012
     23 N          65.0599   92.3661   11.0940 N.ar    1  UNL1       -0.2265
     24 C          64.8498   91.7616   12.4506 C.ar    1  UNL1        0.0841
     25 C          65.9828   91.7098   13.4323 C.ar    1  UNL1        0.0468
     26 C          65.7726   91.1053   14.7889 C.3     1  UNL1        0.0372
     27 C          68.5069   93.1826   15.1808 C.3     1  UNL1        0.2542
     28 O          68.4588   92.2109   14.0391 O.3     1  UNL1       -0.4563
@<TRIPOS>BOND
     1    27    28    1
     2    28    20    1
     3    20    21   ar
     4    21    22   ar
     5    22    23   ar
     6    23    24   ar
     7    24    19    1
     8    19     1    1
     9     1     2   ar
    10     2     3   ar
    11     3    11    1
    12    11    12    2
    13    11    13   am
    14    13    15    1
    15    15    16    1
    16    16    17    1
    17    16    18    1
    18     3     4   ar
    19     4     5   ar
    20     5     6   ar
    21     6     7   ar
    22     7     8    1
    23     7     9   ar
    24     9    10   ar
    25    24    25   ar
    26    25    26    1
    27    25    20   ar
    28    10     1   ar
    29    10     4   ar
    30    13    14    1
@<TRIPOS>MOLECULE
*****
 28 30 0 0 0
SMALL
GASTEIGER

@<TRIPOS>ATOM
      1 N          62.5422   86.5607   11.5921 N.ar    1  UNL1       -0.3190
      2 C          61.6229   86.1847   10.4680 C.ar    1  UNL1        0.0823
      3 C          61.2188   87.4433    9.7591 C.ar    1  UNL1        0.0895
      4 C          61.8882   88.5972   10.4451 C.ar    1  UNL1        0.1028
      5 N          61.8586   90.0740   10.1845 N.ar    1  UNL1       -0.2425
      6 C          62.6469   91.0054   11.0569 C.ar    1  UNL1        0.0946
      7 C          63.4649   90.4599   12.1897 C.ar    1  UNL1       -0.0013
      8 C          64.2532   91.3914   13.0621 C.3     1  UNL1        0.0327
      9 C          63.4944   88.9830   12.4503 C.ar    1  UNL1        0.0160
     10 C          62.7061   88.0517   11.5780 C.ar    1  UNL1        0.0780
     11 C          60.3055   87.5325    8.5725 C.2     1  UNL1        0.2490
     12 O          59.8008   86.2805    7.9187 O.2     1  UNL1       -0.2700
     13 N          59.8969   88.8739    8.0396 N.am    1  UNL1       -0.2959
     14 H          60.2281   89.6957    8.4687 H       1  UNL1        0.1499
     15 C          58.9836   88.9631    6.8531 C.3     1  UNL1        0.1627
     16 C          59.1028   90.1151    5.8999 C.3     1  UNL1        0.3378
     17 F          60.4429   90.4890    5.3393 F       1  UNL1       -0.1965
     18 F          57.8820   90.8932    5.5074 F       1  UNL1       -0.1965
     19 C          63.1847   85.6123   12.5604 C.3     1  UNL1        0.1518
     20 C          62.5199   81.7370   13.0997 C.ar    1  UNL1        0.2234
     21 N          63.0316   81.1788   11.8049 N.ar    1  UNL1       -0.1896
     22 C          63.5944   82.0983   10.7619 C.ar    1  UNL1        0.2012
     23 N          63.6454   83.5761   11.0137 N.ar    1  UNL1       -0.2265
     24 C          63.1337   84.1344   12.3085 C.ar    1  UNL1        0.0841
     25 C          62.5709   83.2148   13.3514 C.ar    1  UNL1        0.0468
     26 C          62.0592   83.7731   14.6462 C.3     1  UNL1        0.0372
     27 C          60.4843   80.5352   14.1777 C.3     1  UNL1        0.2542
     28 O          61.9571   80.8174   14.1426 O.3     1  UNL1       -0.4563
@<TRIPOS>BOND
     1    27    28    1
     2    28    20    1
     3    20    21   ar
     4    21    22   ar
     5    22    23   ar
     6    23    24   ar
     7    24    19    1
     8    19     1    1
     9     1     2   ar
    10     2     3   ar
    11     3    11    1
    12    11    12    2
    13    11    13   am
    14    13    15    1
    15    15    16    1
    16    16    17    1
    17    16    18    1
    18     3     4   ar
    19     4     5   ar
    20     5     6   ar
    21     6     7   ar
    22     7     8    1
    23     7     9   ar
    24     9    10   ar
    25    24    25   ar
    26    25    26    1
    27    25    20   ar
    28    10     1   ar
    29    10     4   ar
    30    13    14    1
@<TRIPOS>MOLECULE
*****
 28 30 0 0 0
SMALL
GASTEIGER

@<TRIPOS>ATOM
      1 N          62.0095   88.7236   11.3906 N.ar    1  UNL1       -0.3190
      2 C          62.6786   87.5330   12.0108 C.ar    1  UNL1        0.0823
      3 C          62.3685   86.3340   11.1644 C.ar    1  UNL1        0.0895
      4 C          61.5078   86.7837   10.0212 C.ar    1  UNL1        0.1028
      5 N          60.8975   86.0391    8.8709 N.ar    1  UNL1       -0.2425
      6 C          60.0653   86.7715    7.8605 C.ar    1  UNL1        0.0946
      7 C          59.8434   88.2484    8.0003 C.ar    1  UNL1       -0.0013
      8 C          59.0111   88.9807    6.9898 C.3     1  UNL1        0.0327
      9 C          60.4537   88.9929    9.1505 C.ar    1  UNL1        0.0160
     10 C          61.2860   88.2606   10.1610 C.ar    1  UNL1        0.0780
     11 C          62.8369   84.9316   11.4169 C.2     1  UNL1        0.2490
     12 O          63.4074   84.1176   10.2936 O.2     1  UNL1       -0.2700
     13 N          62.7348   84.3430   12.7930 N.am    1  UNL1       -0.2959
     14 H          62.3604   84.8772   13.5303 H       1  UNL1        0.1499
     15 C          63.2032   82.9406   13.0455 C.3     1  UNL1        0.1627
     16 C          62.4035   81.7793   12.5339 C.3     1  UNL1        0.3378
     17 F          62.7633   81.1391   11.2259 F       1  UNL1       -0.1965
     18 F          61.2440   81.2582   13.3301 F       1  UNL1       -0.1965
     19 C          62.0559   90.1304   11.9090 C.3     1  UNL1        0.1518
     20 C          65.4646   91.5891   13.3244 C.ar    1  UNL1        0.2234
     21 N          65.9805   92.3219   12.1215 N.ar    1  UNL1       -0.1896
     22 C          65.1882   92.3242   10.8479 C.ar    1  UNL1        0.2012
     23 N          63.8800   91.5938   10.7770 N.ar    1  UNL1       -0.2265
     24 C          63.3641   90.8610   11.9799 C.ar    1  UNL1        0.0841
     25 C          64.1565   90.8586   13.2535 C.ar    1  UNL1        0.0468
     26 C          63.6405   90.1258   14.4564 C.3     1  UNL1        0.0372
     27 C          67.6086   92.2356   14.6416 C.3     1  UNL1        0.2542
     28 O          66.2570   91.5868   14.5980 O.3     1  UNL1       -0.4563
@<TRIPOS>BOND
     1    27    28    1
     2    28    20    1
     3    20    21   ar
     4    21    22   ar
     5    22    23   ar
     6    23    24   ar
     7    24    19    1
     8    19     1    1
     9     1     2   ar
    10     2     3   ar
    11     3    11    1
    12    11    12    2
    13    11    13   am
    14    13    15    1
    15    15    16    1
    16    16    17    1
    17    16    18    1
    18     3     4   ar
    19     4     5   ar
    20     5     6   ar
    21     6     7   ar
    22     7     8    1
    23     7     9   ar
    24     9    10   ar
    25    24    25   ar
    26    25    26    1
    27    25    20   ar
    28    10     1   ar
    29    10     4   ar
    30    13    14    1
