@<TRIPOS>MOLECULE
*****
 35 38 0 0 0
SMALL
GASTEIGER

@<TRIPOS>ATOM
      1 N          64.2063   90.3494   12.3028 N.pl3   1  UNL1       -0.3073
      2 C          63.4892   90.3228   10.9856 C.3     1  UNL1        0.0925
      3 C          62.7537   89.0878   10.5568 C.3     1  UNL1        0.0415
      4 C          62.7354   87.8794   11.4453 C.3     1  UNL1        0.0807
      5 C          63.4525   87.9060   12.7625 C.3     1  UNL1        0.0415
      6 C          64.1880   89.1410   13.1912 C.3     1  UNL1        0.0925
      7 C          65.8619   93.9547   12.1974 C.ar    1  UNL1        0.1234
      8 C          66.4128   94.0544   13.5890 C.ar    1  UNL1        0.0200
      9 C          66.2283   92.9191   14.5518 C.ar    1  UNL1        0.0026
     10 C          65.4928   91.6841   14.1231 C.ar    1  UNL1        0.0146
     11 C          64.9419   91.5844   12.7316 C.ar    1  UNL1        0.0492
     12 C          65.1264   92.7197   11.7687 C.ar    1  UNL1        0.0344
     13 S          66.0464   95.0900   11.2346 S.O2    1  UNL1        0.0634
     14 O          65.9972   94.1250   10.0873 O.2     1  UNL1       -0.1528
     15 O          66.0956   96.0550   12.3819 O.2     1  UNL1       -0.1528
     16 C          67.6091   96.7310    9.9637 C.3     1  UNL1        0.1150
     17 N          66.2310   96.2253   10.2717 N.3     1  UNL1       -0.1526
     18 C          65.0373   96.8549    9.6169 C.3     1  UNL1        0.1150
     19 N          61.9999   86.6444   11.0166 N.pl3   1  UNL1       -0.2872
     20 C          62.2696   85.3361   11.6988 C.ar    1  UNL1        0.0515
     21 C          62.0433   85.1995   13.1753 C.ar    1  UNL1        0.0148
     22 C          62.3131   83.8911   13.8576 C.ar    1  UNL1        0.0051
     23 C          62.8091   82.7193   13.0633 C.ar    1  UNL1        0.0715
     24 C          63.0354   82.8559   11.5867 C.ar    1  UNL1        0.0051
     25 C          62.7657   84.1642   10.9045 C.ar    1  UNL1        0.0148
     26 C          63.0789   81.4110   13.7455 C.3     1  UNL1        0.4186
     27 F          63.3487   80.1026   14.4278 F       1  UNL1       -0.1659
     28 F          61.7445   81.4908   14.4260 F       1  UNL1       -0.1659
     29 F          64.4132   81.3312   13.0650 F       1  UNL1       -0.1659
     30 C          60.9947   86.7177    9.9056 C.ar    1  UNL1        0.0710
     31 C          61.2154   85.9403    8.6420 C.ar    1  UNL1        0.0180
     32 C          60.2102   86.0136    7.5310 C.ar    1  UNL1        0.0220
     33 C          58.9843   86.8644    7.6837 C.ar    1  UNL1        0.0990
     34 N          58.7636   87.6418    8.9474 N.ar    1  UNL1       -0.2410
     35 C          59.7688   87.5684   10.0583 C.ar    1  UNL1        0.1136
@<TRIPOS>BOND
     1    16    17    1
     2    17    18    1
     3    17    13    1
     4    13    14    2
     5    13    15    2
     6    13     7    1
     7     7     8   ar
     8     8     9   ar
     9     9    10   ar
    10    10    11   ar
    11    11     1    1
    12     1     2    1
    13     2     3    1
    14     3     4    1
    15     4    19    1
    16    19    20    1
    17    20    21   ar
    18    21    22   ar
    19    22    23   ar
    20    23    26    1
    21    26    27    1
    22    26    28    1
    23    26    29    1
    24    23    24   ar
    25    24    25   ar
    26    19    30    1
    27    30    31   ar
    28    31    32   ar
    29    32    33   ar
    30    33    34   ar
    31    34    35   ar
    32     4     5    1
    33     5     6    1
    34    11    12   ar
    35    12     7   ar
    36     6     1    1
    37    25    20   ar
    38    35    30   ar
@<TRIPOS>MOLECULE
*****
 35 38 0 0 0
SMALL
GASTEIGER

@<TRIPOS>ATOM
      1 N          64.0229   89.0533   13.9702 N.pl3   1  UNL1       -0.3073
      2 C          63.2687   89.2921   12.6958 C.3     1  UNL1        0.0925
      3 C          62.7741   88.1291   11.8877 C.3     1  UNL1        0.0415
      4 C          63.0339   86.7273   12.3540 C.3     1  UNL1        0.0807
      5 C          63.7882   86.4885   13.6285 C.3     1  UNL1        0.0415
      6 C          64.2827   87.6515   14.4365 C.3     1  UNL1        0.0925
      7 C          66.3970   91.9112   15.3652 C.ar    1  UNL1        0.1234
      8 C          65.5066   92.5421   16.3943 C.ar    1  UNL1        0.0200
      9 C          64.1217   92.0101   16.6154 C.ar    1  UNL1        0.0026
     10 C          63.6271   90.8472   15.8074 C.ar    1  UNL1        0.0146
     11 C          64.5175   90.2163   14.7782 C.ar    1  UNL1        0.0492
     12 C          65.9024   90.7483   14.5572 C.ar    1  UNL1        0.0344
     13 S          67.7819   92.4432   15.1441 S.O2    1  UNL1        0.0634
     14 O          68.0972   92.2252   16.5943 O.2     1  UNL1       -0.1528
     15 O          67.4667   92.6612   13.6939 O.2     1  UNL1       -0.1528
     16 C          70.0396   92.3764   13.8601 C.3     1  UNL1        0.1150
     17 N          69.1669   92.9752   14.9230 N.3     1  UNL1       -0.1526
     18 C          69.6792   94.1061   15.7648 C.3     1  UNL1        0.1150
     19 N          62.5393   85.5644   11.5460 N.pl3   1  UNL1       -0.2872
     20 C          62.5894   84.1785   12.1178 C.ar    1  UNL1        0.0515
     21 C          62.3436   83.9618   13.5816 C.ar    1  UNL1        0.0148
     22 C          62.3936   82.5759   14.1533 C.ar    1  UNL1        0.0051
     23 C          62.6895   81.4068   13.2613 C.ar    1  UNL1        0.0715
     24 C          62.9353   81.6236   11.7976 C.ar    1  UNL1        0.0051
     25 C          62.8853   83.0094   11.2258 C.ar    1  UNL1        0.0148
     26 C          62.7395   80.0210   13.8331 C.3     1  UNL1        0.4186
     27 F          62.7896   78.6351   14.4049 F       1  UNL1       -0.1659
     28 F          61.3007   79.8160   13.4622 F       1  UNL1       -0.1659
     29 F          64.1784   80.2260   14.2039 F       1  UNL1       -0.1659
     30 C          61.9948   85.7872   10.1662 C.ar    1  UNL1        0.0710
     31 C          62.7742   85.3291    8.9693 C.ar    1  UNL1        0.0180
     32 C          62.2296   85.5519    7.5895 C.ar    1  UNL1        0.0220
     33 C          60.9057   86.2329    7.4067 C.ar    1  UNL1        0.0990
     34 N          60.1263   86.6910    8.6036 N.ar    1  UNL1       -0.2410
     35 C          60.6709   86.4682    9.9834 C.ar    1  UNL1        0.1136
@<TRIPOS>BOND
     1    16    17    1
     2    17    18    1
     3    17    13    1
     4    13    14    2
     5    13    15    2
     6    13     7    1
     7     7     8   ar
     8     8     9   ar
     9     9    10   ar
    10    10    11   ar
    11    11     1    1
    12     1     2    1
    13     2     3    1
    14     3     4    1
    15     4    19    1
    16    19    20    1
    17    20    21   ar
    18    21    22   ar
    19    22    23   ar
    20    23    26    1
    21    26    27    1
    22    26    28    1
    23    26    29    1
    24    23    24   ar
    25    24    25   ar
    26    19    30    1
    27    30    31   ar
    28    31    32   ar
    29    32    33   ar
    30    33    34   ar
    31    34    35   ar
    32     4     5    1
    33     5     6    1
    34    11    12   ar
    35    12     7   ar
    36     6     1    1
    37    25    20   ar
    38    35    30   ar
@<TRIPOS>MOLECULE
*****
 35 38 0 0 0
SMALL
GASTEIGER

@<TRIPOS>ATOM
      1 N          64.1703   90.5494   11.6629 N.pl3   1  UNL1       -0.3073
      2 C          64.0612   89.4546   12.6825 C.3     1  UNL1        0.0925
      3 C          63.3184   88.1938   12.3526 C.3     1  UNL1        0.0415
      4 C          62.6848   88.0279   11.0032 C.3     1  UNL1        0.0807
      5 C          62.7940   89.1227    9.9836 C.3     1  UNL1        0.0415
      6 C          63.5367   90.3834   10.3135 C.3     1  UNL1        0.0925
      7 C          66.5780   93.1106   13.5051 C.ar    1  UNL1        0.1234
      8 C          66.3986   94.3316   12.6526 C.ar    1  UNL1        0.0200
      9 C          65.4764   94.2920   11.4702 C.ar    1  UNL1        0.0026
     10 C          64.7337   93.0313   11.1403 C.ar    1  UNL1        0.0146
     11 C          64.9131   91.8102   11.9928 C.ar    1  UNL1        0.0492
     12 C          65.8353   91.8498   13.1752 C.ar    1  UNL1        0.0344
     13 S          67.5002   93.1502   14.6874 S.O2    1  UNL1        0.0634
     14 O          68.6389   92.7137   13.8140 O.2     1  UNL1       -0.1528
     15 O          66.3616   93.5867   15.5609 O.2     1  UNL1       -0.1528
     16 C          68.6511   91.9514   16.6845 C.3     1  UNL1        0.1150
     17 N          68.4224   93.1899   15.8698 N.3     1  UNL1       -0.1526
     18 C          69.1159   94.4680   16.2375 C.3     1  UNL1        0.1150
     19 N          61.9421   86.7671   10.6733 N.pl3   1  UNL1       -0.2872
     20 C          62.2873   85.4877   11.3759 C.ar    1  UNL1        0.0515
     21 C          62.8514   84.3345   10.6000 C.ar    1  UNL1        0.0148
     22 C          63.1966   83.0550   11.3027 C.ar    1  UNL1        0.0051
     23 C          62.9776   82.9286   12.7812 C.ar    1  UNL1        0.0715
     24 C          62.4134   84.0818   13.5571 C.ar    1  UNL1        0.0051
     25 C          62.0683   85.3612   12.8545 C.ar    1  UNL1        0.0148
     26 C          63.3228   81.6491   13.4838 C.3     1  UNL1        0.4186
     27 F          63.6680   80.3696   14.1864 F       1  UNL1       -0.1659
     28 F          63.8597   82.4318   14.6453 F       1  UNL1       -0.1659
     29 F          62.7859   80.8665   12.3223 F       1  UNL1       -0.1659
     30 C          60.8541   86.7859    9.6408 C.ar    1  UNL1        0.0710
     31 C          60.9578   85.9120    8.4261 C.ar    1  UNL1        0.0180
     32 C          59.8698   85.9307    7.3936 C.ar    1  UNL1        0.0220
     33 C          58.6783   86.8235    7.5758 C.ar    1  UNL1        0.0990
     34 N          58.5747   87.6974    8.7904 N.ar    1  UNL1       -0.2410
     35 C          59.6626   87.6786    9.8229 C.ar    1  UNL1        0.1136
@<TRIPOS>BOND
     1    16    17    1
     2    17    18    1
     3    17    13    1
     4    13    14    2
     5    13    15    2
     6    13     7    1
     7     7     8   ar
     8     8     9   ar
     9     9    10   ar
    10    10    11   ar
    11    11     1    1
    12     1     2    1
    13     2     3    1
    14     3     4    1
    15     4    19    1
    16    19    20    1
    17    20    21   ar
    18    21    22   ar
    19    22    23   ar
    20    23    26    1
    21    26    27    1
    22    26    28    1
    23    26    29    1
    24    23    24   ar
    25    24    25   ar
    26    19    30    1
    27    30    31   ar
    28    31    32   ar
    29    32    33   ar
    30    33    34   ar
    31    34    35   ar
    32     4     5    1
    33     5     6    1
    34    11    12   ar
    35    12     7   ar
    36     6     1    1
    37    25    20   ar
    38    35    30   ar
@<TRIPOS>MOLECULE
*****
 35 38 0 0 0
SMALL
GASTEIGER

@<TRIPOS>ATOM
      1 N          61.2826   88.3785   10.3867 N.pl3   1  UNL1       -0.3073
      2 C          62.2870   87.3658   10.8509 C.3     1  UNL1        0.0925
      3 C          63.0637   87.6032   12.1121 C.3     1  UNL1        0.0415
      4 C          62.8360   88.8535   12.9090 C.3     1  UNL1        0.0807
      5 C          61.8315   89.8663   12.4447 C.3     1  UNL1        0.0415
      6 C          61.0549   89.6288   11.1836 C.3     1  UNL1        0.0925
      7 C          59.3964   89.0538    6.9609 C.ar    1  UNL1        0.1234
      8 C          58.9526   87.6663    6.6034 C.ar    1  UNL1        0.0200
      9 C          59.2854   86.5162    7.5070 C.ar    1  UNL1        0.0026
     10 C          60.0621   86.7536    8.7681 C.ar    1  UNL1        0.0146
     11 C          60.5059   88.1411    9.1256 C.ar    1  UNL1        0.0492
     12 C          60.1731   89.2912    8.2219 C.ar    1  UNL1        0.0344
     13 S          59.0636   90.2039    6.0572 S.O2    1  UNL1        0.0634
     14 O          60.5185   90.3690    5.7316 O.2     1  UNL1       -0.1528
     15 O          57.6088   90.0387    6.3829 O.2     1  UNL1       -0.1528
     16 C          57.2978   91.7100    4.8895 C.3     1  UNL1        0.1150
     17 N          58.7308   91.3540    5.1536 N.3     1  UNL1       -0.1526
     18 C          59.8310   92.1481    4.5141 C.3     1  UNL1        0.1150
     19 N          63.6126   89.0910   14.1700 N.pl3   1  UNL1       -0.2872
     20 C          64.4814   90.3070   14.2980 C.ar    1  UNL1        0.0515
     21 C          64.6695   90.9568   15.6368 C.ar    1  UNL1        0.0148
     22 C          65.5384   92.1729   15.7647 C.ar    1  UNL1        0.0051
     23 C          66.2190   92.7391   14.5539 C.ar    1  UNL1        0.0715
     24 C          66.0309   92.0893   13.2151 C.ar    1  UNL1        0.0051
     25 C          65.1621   90.8733   13.0872 C.ar    1  UNL1        0.0148
     26 C          67.0878   93.9552   14.6819 C.3     1  UNL1        0.4186
     27 F          67.9566   95.1713   14.8098 F       1  UNL1       -0.1659
     28 F          67.6786   93.4002   15.9440 F       1  UNL1       -0.1659
     29 F          66.4970   94.5101   13.4198 F       1  UNL1       -0.1659
     30 C          63.5205   88.1124   15.3032 C.ar    1  UNL1        0.0710
     31 C          62.8784   88.5202   16.5960 C.ar    1  UNL1        0.0180
     32 C          62.7863   87.5417   17.7291 C.ar    1  UNL1        0.0220
     33 C          63.3362   86.1553   17.5694 C.ar    1  UNL1        0.0990
     34 N          63.9782   85.7475   16.2766 N.ar    1  UNL1       -0.2410
     35 C          64.0703   86.7260   15.1435 C.ar    1  UNL1        0.1136
@<TRIPOS>BOND
     1    16    17    1
     2    17    18    1
     3    17    13    1
     4    13    14    2
     5    13    15    2
     6    13     7    1
     7     7     8   ar
     8     8     9   ar
     9     9    10   ar
    10    10    11   ar
    11    11     1    1
    12     1     2    1
    13     2     3    1
    14     3     4    1
    15     4    19    1
    16    19    20    1
    17    20    21   ar
    18    21    22   ar
    19    22    23   ar
    20    23    26    1
    21    26    27    1
    22    26    28    1
    23    26    29    1
    24    23    24   ar
    25    24    25   ar
    26    19    30    1
    27    30    31   ar
    28    31    32   ar
    29    32    33   ar
    30    33    34   ar
    31    34    35   ar
    32     4     5    1
    33     5     6    1
    34    11    12   ar
    35    12     7   ar
    36     6     1    1
    37    25    20   ar
    38    35    30   ar
@<TRIPOS>MOLECULE
*****
 35 38 0 0 0
SMALL
GASTEIGER

@<TRIPOS>ATOM
      1 N          62.8484   90.2547   10.8433 N.pl3   1  UNL1       -0.3073
      2 C          63.2569   91.2424    9.7910 C.3     1  UNL1        0.0925
      3 C          64.3278   92.2510   10.0843 C.3     1  UNL1        0.0415
      4 C          64.9901   92.2718   11.4300 C.3     1  UNL1        0.0807
      5 C          64.5816   91.2840   12.4824 C.3     1  UNL1        0.0415
      6 C          63.5107   90.2755   12.1890 C.3     1  UNL1        0.0925
      7 C          60.9416   87.1720    9.2274 C.ar    1  UNL1        0.1234
      8 C          59.6359   87.2289    9.9634 C.ar    1  UNL1        0.0200
      9 C          59.4009   88.2944   10.9927 C.ar    1  UNL1        0.0026
     10 C          60.4717   89.3030   11.2860 C.ar    1  UNL1        0.0146
     11 C          61.7775   89.2460   10.5500 C.ar    1  UNL1        0.0492
     12 C          62.0124   88.1805    9.5207 C.ar    1  UNL1        0.0344
     13 S          61.1766   86.1064    8.1981 S.O2    1  UNL1        0.0634
     14 O          62.6230   86.0459    8.5909 O.2     1  UNL1       -0.1528
     15 O          59.7302   86.1669    7.8053 O.2     1  UNL1       -0.1528
     16 C          60.2710   84.5417    6.3322 C.3     1  UNL1        0.1150
     17 N          61.4115   85.0409    7.1688 N.3     1  UNL1       -0.1526
     18 C          62.7870   84.4745    6.9761 C.3     1  UNL1        0.1150
     19 N          66.0610   93.2803   11.7234 N.pl3   1  UNL1       -0.2872
     20 C          66.9345   93.1168   12.9317 C.ar    1  UNL1        0.0515
     21 C          68.0448   92.1082   12.9236 C.ar    1  UNL1        0.0148
     22 C          68.9183   91.9447   14.1320 C.ar    1  UNL1        0.0051
     23 C          68.6815   92.7897   15.3485 C.ar    1  UNL1        0.0715
     24 C          67.5712   93.7982   15.3567 C.ar    1  UNL1        0.0051
     25 C          66.6977   93.9617   14.1483 C.ar    1  UNL1        0.0148
     26 C          69.5550   92.6261   16.5569 C.3     1  UNL1        0.4186
     27 F          70.4286   92.4625   17.7653 F       1  UNL1       -0.1659
     28 F          70.0249   94.0429   16.4090 F       1  UNL1       -0.1659
     29 F          69.0852   91.2093   16.7048 F       1  UNL1       -0.1659
     30 C          66.2583   94.4524   10.8083 C.ar    1  UNL1        0.0710
     31 C          67.2968   94.3937    9.7276 C.ar    1  UNL1        0.0180
     32 C          67.4942   95.5658    8.8126 C.ar    1  UNL1        0.0220
     33 C          66.6530   96.7966    8.9783 C.ar    1  UNL1        0.0990
     34 N          65.6145   96.8553   10.0590 N.ar    1  UNL1       -0.2410
     35 C          65.4172   95.6832   10.9741 C.ar    1  UNL1        0.1136
@<TRIPOS>BOND
     1    16    17    1
     2    17    18    1
     3    17    13    1
     4    13    14    2
     5    13    15    2
     6    13     7    1
     7     7     8   ar
     8     8     9   ar
     9     9    10   ar
    10    10    11   ar
    11    11     1    1
    12     1     2    1
    13     2     3    1
    14     3     4    1
    15     4    19    1
    16    19    20    1
    17    20    21   ar
    18    21    22   ar
    19    22    23   ar
    20    23    26    1
    21    26    27    1
    22    26    28    1
    23    26    29    1
    24    23    24   ar
    25    24    25   ar
    26    19    30    1
    27    30    31   ar
    28    31    32   ar
    29    32    33   ar
    30    33    34   ar
    31    34    35   ar
    32     4     5    1
    33     5     6    1
    34    11    12   ar
    35    12     7   ar
    36     6     1    1
    37    25    20   ar
    38    35    30   ar
