@<TRIPOS>MOLECULE
*****
 38 40 0 0 0
SMALL
GASTEIGER

@<TRIPOS>ATOM
      1 C          62.8206   88.1289   12.2399 C.2     1  UNL1        0.2491
      2 O          63.2381   86.7605   12.6906 O.2     1  UNL1       -0.2699
      3 N          61.7049   88.2844   11.2494 N.am    1  UNL1       -0.2776
      4 C          64.6295   91.6581   12.3907 C.ar    1  UNL1        0.1723
      5 C          63.9314   90.4452   11.8510 C.ar    1  UNL1        0.0446
      6 C          63.5187   89.3419   12.7797 C.ar    1  UNL1        0.0568
      7 C          63.8042   89.4516   14.2482 C.ar    1  UNL1        0.0078
      8 C          64.5023   90.6645   14.7879 C.ar    1  UNL1        0.0402
      9 C          64.9149   91.7678   13.8592 C.ar    1  UNL1        0.1724
     10 O          65.6131   92.9808   14.3990 O.3     1  UNL1       -0.4684
     11 C          66.6477   92.8339   15.4750 C.3     1  UNL1        0.2526
     12 O          65.0421   92.7614   11.4620 O.3     1  UNL1       -0.4723
     13 C          66.4948   93.0928   11.2898 C.3     1  UNL1        0.2082
     14 C          67.3423   92.2852   10.3520 C.3     1  UNL1        0.0794
     15 C          68.1860   92.9747    9.3211 C.3     1  UNL1        0.1461
     16 C          67.5815   95.4172    8.6744 C.3     1  UNL1        0.1741
     17 O          68.4445   94.4484    9.4270 O.3     1  UNL1       -0.3510
     18 C          61.2874   89.6528   10.7987 C.3     1  UNL1        0.0757
     19 C          61.9515   90.2869    9.6126 C.3     1  UNL1        0.0215
     20 C          60.2058   90.3871   11.5341 C.3     1  UNL1        0.0215
     21 C          61.0068   87.0715   10.7095 C.3     1  UNL1        0.0967
     22 C          61.6805   86.2150    9.6787 C.3     1  UNL1        0.0549
     23 C          61.6017   86.3982    8.1920 C.3     1  UNL1        0.0720
     24 N          62.4237   85.3213    7.5481 N.3     1  UNL1       -0.2960
     25 C          63.0106   84.4726    8.6368 C.3     1  UNL1        0.0884
     26 C          62.5512   85.0249    9.9536 C.3     1  UNL1        0.0902
     27 H          63.1713   85.7405    6.9950 H       1  UNL1        0.1233
     28 N          62.9011   84.4823   11.3075 N.am    1  UNL1       -0.3045
     29 C          63.9704   83.4393   11.4442 C.2     1  UNL1        0.2225
     30 O          64.6898   82.9388   10.2268 O.2     1  UNL1       -0.2751
     31 H          62.4289   84.8108   12.1065 H       1  UNL1        0.1494
     32 C          64.3203   82.8968   12.7981 C.3     1  UNL1        0.0852
     33 C          63.9698   83.6751   14.0315 C.3     1  UNL1        0.0141
     34 C          62.6827   83.4005   14.7512 C.3     1  UNL1        0.0326
     35 C          62.3323   84.1789   15.9846 C.3     1  UNL1        0.1422
     36 O          63.2688   85.2319   16.4984 O.3     1  UNL1       -0.3538
     37 C          64.5559   85.5065   15.7787 C.3     1  UNL1        0.1422
     38 C          64.9064   84.7281   14.5453 C.3     1  UNL1        0.0326
@<TRIPOS>BOND
     1    16    17    1
     2    17    15    1
     3    15    14    1
     4    14    13    1
     5    13    12    1
     6    12     4    1
     7     4     5   ar
     8     5     6   ar
     9     6     1    1
    10     1     2    2
    11     1     3   am
    12     3    21    1
    13    22    21    1
    14    22    23    1
    15    23    24    1
    16    24    25    1
    17    25    26    1
    18    26    28    1
    19    28    29   am
    20    29    30    2
    21    29    32    1
    22    32    33    1
    23    33    34    1
    24    34    35    1
    25    35    36    1
    26    36    37    1
    27    37    38    1
    28     3    18    1
    29    18    19    1
    30    18    20    1
    31     6     7   ar
    32     7     8   ar
    33     8     9   ar
    34     9    10    1
    35    10    11    1
    36     9     4   ar
    37    26    22    1
    38    38    33    1
    39    24    27    1
    40    28    31    1
@<TRIPOS>MOLECULE
*****
 38 40 0 0 0
SMALL
GASTEIGER

@<TRIPOS>ATOM
      1 C          62.1300   87.5498   11.5503 C.2     1  UNL1        0.2491
      2 O          62.6286   86.7205   12.6963 O.2     1  UNL1       -0.2699
      3 N          61.8779   89.0163   11.7395 N.am    1  UNL1       -0.2776
      4 C          60.3489   86.5295    8.1537 C.ar    1  UNL1        0.1723
      5 C          60.5955   87.1666    9.4891 C.ar    1  UNL1        0.0446
      6 C          61.8834   86.9127   10.2148 C.ar    1  UNL1        0.0568
      7 C          62.9248   86.0218    9.6052 C.ar    1  UNL1        0.0078
      8 C          62.6782   85.3847    8.2698 C.ar    1  UNL1        0.0402
      9 C          61.3903   85.6385    7.5441 C.ar    1  UNL1        0.1724
     10 O          61.1437   85.0014    6.2086 O.3     1  UNL1       -0.4684
     11 C          62.2483   84.2592    5.5164 C.3     1  UNL1        0.2526
     12 O          59.0609   86.7833    7.4279 O.3     1  UNL1       -0.4723
     13 C          58.5892   88.1900    7.2071 C.3     1  UNL1        0.2082
     14 C          59.5774   89.2697    6.8790 C.3     1  UNL1        0.0794
     15 C          59.3616   90.1448    5.6799 C.3     1  UNL1        0.1461
     16 C          57.2776   91.4664    4.8675 C.3     1  UNL1        0.1741
     17 O          58.4636   91.3424    5.7773 O.3     1  UNL1       -0.3510
     18 C          61.3793   89.8457   10.5934 C.3     1  UNL1        0.0757
     19 C          62.3423   90.3588    9.5642 C.3     1  UNL1        0.0215
     20 C          59.9177   90.1619   10.4765 C.3     1  UNL1        0.0215
     21 C          62.1244   89.6535   13.0749 C.3     1  UNL1        0.0967
     22 C          63.4587   90.2683   13.3777 C.3     1  UNL1        0.0549
     23 C          63.9251   91.6243   12.9375 C.3     1  UNL1        0.0720
     24 N          65.3155   91.8291   13.4616 N.3     1  UNL1       -0.2960
     25 C          65.7086   90.5996   14.2258 C.3     1  UNL1        0.0884
     26 C          64.5610   89.6350   14.1739 C.3     1  UNL1        0.0902
     27 H          65.3369   92.6414   14.0781 H       1  UNL1        0.1233
     28 N          64.5225   88.2758   14.8071 N.am    1  UNL1       -0.3045
     29 C          63.5866   88.0059   15.9477 C.2     1  UNL1        0.2225
     30 O          62.6889   89.0953   16.4552 O.2     1  UNL1       -0.2751
     31 H          65.1117   87.5607   14.4741 H       1  UNL1        0.1494
     32 C          63.5481   86.6466   16.5809 C.3     1  UNL1        0.0852
     33 C          63.5721   85.4177   15.7211 C.3     1  UNL1        0.0141
     34 C          64.7628   85.1314   14.8550 C.3     1  UNL1        0.0326
     35 C          64.7868   83.9026   13.9952 C.3     1  UNL1        0.1422
     36 O          63.6200   82.9599   14.0014 O.3     1  UNL1       -0.3538
     37 C          62.4293   83.2462   14.8675 C.3     1  UNL1        0.1422
     38 C          62.4053   84.4751   15.7273 C.3     1  UNL1        0.0326
@<TRIPOS>BOND
     1    16    17    1
     2    17    15    1
     3    15    14    1
     4    14    13    1
     5    13    12    1
     6    12     4    1
     7     4     5   ar
     8     5     6   ar
     9     6     1    1
    10     1     2    2
    11     1     3   am
    12     3    21    1
    13    22    21    1
    14    22    23    1
    15    23    24    1
    16    24    25    1
    17    25    26    1
    18    26    28    1
    19    28    29   am
    20    29    30    2
    21    29    32    1
    22    32    33    1
    23    33    34    1
    24    34    35    1
    25    35    36    1
    26    36    37    1
    27    37    38    1
    28     3    18    1
    29    18    19    1
    30    18    20    1
    31     6     7   ar
    32     7     8   ar
    33     8     9   ar
    34     9    10    1
    35    10    11    1
    36     9     4   ar
    37    26    22    1
    38    38    33    1
    39    24    27    1
    40    28    31    1
@<TRIPOS>MOLECULE
*****
 38 40 0 0 0
SMALL
GASTEIGER

@<TRIPOS>ATOM
      1 C          62.3708   87.9693   11.4217 C.2     1  UNL1        0.2491
      2 O          62.9001   86.6291   11.8383 O.2     1  UNL1       -0.2699
      3 N          61.1206   88.0589   10.5978 N.am    1  UNL1       -0.2776
      4 C          64.3343   90.6140   13.6354 C.ar    1  UNL1        0.1723
      5 C          63.6134   89.3633   13.2281 C.ar    1  UNL1        0.0446
      6 C          63.0918   89.2201   11.8289 C.ar    1  UNL1        0.0568
      7 C          63.2913   90.3275   10.8372 C.ar    1  UNL1        0.0078
      8 C          64.0123   91.5782   11.2445 C.ar    1  UNL1        0.0402
      9 C          64.5338   91.7214   12.6436 C.ar    1  UNL1        0.1724
     10 O          65.2548   92.9722   13.0509 O.3     1  UNL1       -0.4684
     11 C          66.7514   92.9759   13.1523 C.3     1  UNL1        0.2526
     12 O          64.8559   90.7572   15.0345 O.3     1  UNL1       -0.4723
     13 C          63.9266   91.1489   16.1449 C.3     1  UNL1        0.2082
     14 C          63.0717   90.1105   16.8089 C.3     1  UNL1        0.0794
     15 C          63.3661   88.6539   16.6043 C.3     1  UNL1        0.1461
     16 C          62.6574   86.4406   17.7659 C.3     1  UNL1        0.1741
     17 O          62.3176   87.6264   16.9124 O.3     1  UNL1       -0.3510
     18 C          60.5913   89.3992   10.1812 C.3     1  UNL1        0.0757
     19 C          60.6829   89.8290    8.7470 C.3     1  UNL1        0.0215
     20 C          59.9705   90.3097   11.1988 C.3     1  UNL1        0.0215
     21 C          60.3995   86.8082   10.1905 C.3     1  UNL1        0.0967
     22 C          60.7497   86.1268    8.9009 C.3     1  UNL1        0.0549
     23 C          59.9105   86.1073    7.6578 C.3     1  UNL1        0.0720
     24 N          60.6427   85.3137    6.6166 N.3     1  UNL1       -0.2960
     25 C          61.9344   84.8427    7.2162 C.3     1  UNL1        0.0884
     26 C          62.0006   85.3452    8.6279 C.3     1  UNL1        0.0902
     27 H          60.8318   85.9003    5.8038 H       1  UNL1        0.1233
     28 N          63.1209   85.1078    9.5967 N.am    1  UNL1       -0.3045
     29 C          63.4753   83.7088   10.0054 C.2     1  UNL1        0.2225
     30 O          62.7094   82.5470    9.4453 O.2     1  UNL1       -0.2751
     31 H          63.6236   85.8703    9.9643 H       1  UNL1        0.1494
     32 C          64.5957   83.4714   10.9741 C.3     1  UNL1        0.0852
     33 C          64.2924   83.1596   12.4097 C.3     1  UNL1        0.0141
     34 C          63.6358   81.8606   12.7725 C.3     1  UNL1        0.0326
     35 C          63.3326   81.5488   14.2080 C.3     1  UNL1        0.1422
     36 O          63.6860   82.5358   15.2808 O.3     1  UNL1       -0.3538
     37 C          64.3426   83.8347   14.9180 C.3     1  UNL1        0.1422
     38 C          64.6458   84.1466   13.4824 C.3     1  UNL1        0.0326
@<TRIPOS>BOND
     1    16    17    1
     2    17    15    1
     3    15    14    1
     4    14    13    1
     5    13    12    1
     6    12     4    1
     7     4     5   ar
     8     5     6   ar
     9     6     1    1
    10     1     2    2
    11     1     3   am
    12     3    21    1
    13    22    21    1
    14    22    23    1
    15    23    24    1
    16    24    25    1
    17    25    26    1
    18    26    28    1
    19    28    29   am
    20    29    30    2
    21    29    32    1
    22    32    33    1
    23    33    34    1
    24    34    35    1
    25    35    36    1
    26    36    37    1
    27    37    38    1
    28     3    18    1
    29    18    19    1
    30    18    20    1
    31     6     7   ar
    32     7     8   ar
    33     8     9   ar
    34     9    10    1
    35    10    11    1
    36     9     4   ar
    37    26    22    1
    38    38    33    1
    39    24    27    1
    40    28    31    1
@<TRIPOS>MOLECULE
*****
 38 40 0 0 0
SMALL
GASTEIGER

@<TRIPOS>ATOM
      1 C          62.4113   88.5354   11.7015 C.2     1  UNL1        0.2491
      2 O          62.9811   87.2112   12.1161 O.2     1  UNL1       -0.2699
      3 N          61.0643   88.5997   11.0448 N.am    1  UNL1       -0.2776
      4 C          64.2569   91.4989   13.5888 C.ar    1  UNL1        0.1723
      5 C          63.4796   90.2391   13.3467 C.ar    1  UNL1        0.0446
      6 C          63.1886   89.7953   11.9437 C.ar    1  UNL1        0.0568
      7 C          63.6749   90.6113   10.7828 C.ar    1  UNL1        0.0078
      8 C          64.4522   91.8711   11.0250 C.ar    1  UNL1        0.0402
      9 C          64.7432   92.3149   12.4280 C.ar    1  UNL1        0.1724
     10 O          65.5205   93.5748   12.6701 O.3     1  UNL1       -0.4684
     11 C          66.2268   94.2506   11.5324 C.3     1  UNL1        0.2526
     12 O          64.5478   91.9426   14.9918 O.3     1  UNL1       -0.4723
     13 C          65.9639   92.1837   15.4237 C.3     1  UNL1        0.2082
     14 C          67.0691   91.3251   14.8842 C.3     1  UNL1        0.0794
     15 C          68.1047   91.9187   13.9757 C.3     1  UNL1        0.1461
     16 C          68.9477   93.5697   15.7959 C.3     1  UNL1        0.1741
     17 O          69.1913   92.7843   14.5415 O.3     1  UNL1       -0.3510
     18 C          60.4945   89.9240   10.6302 C.3     1  UNL1        0.0757
     19 C          60.6350   90.3897    9.2113 C.3     1  UNL1        0.0215
     20 C          59.7844   90.7824   11.6345 C.3     1  UNL1        0.0215
     21 C          60.2870   87.3399   10.8027 C.3     1  UNL1        0.0967
     22 C          60.5216   86.5422    9.5542 C.3     1  UNL1        0.0549
     23 C          59.8265   86.7374    8.2395 C.3     1  UNL1        0.0720
     24 N          60.3677   85.7250    7.2741 N.3     1  UNL1       -0.2960
     25 C          61.3974   84.9039    7.9922 C.3     1  UNL1        0.0884
     26 C          61.4924   85.4090    9.4014 C.3     1  UNL1        0.0902
     27 H          60.7961   86.1992    6.4790 H       1  UNL1        0.1233
     28 N          62.3992   84.8747   10.4702 N.am    1  UNL1       -0.3045
     29 C          63.5600   83.9996   10.1005 C.2     1  UNL1        0.2225
     30 O          63.8141   83.6588    8.6620 O.2     1  UNL1       -0.2751
     31 H          62.2324   85.0983   11.4143 H       1  UNL1        0.1494
     32 C          64.4668   83.4653   11.1693 C.3     1  UNL1        0.0852
     33 C          63.9571   83.2962   12.5699 C.3     1  UNL1        0.0141
     34 C          62.8999   82.2739   12.8650 C.3     1  UNL1        0.0326
     35 C          62.3901   82.1048   14.2655 C.3     1  UNL1        0.1422
     36 O          62.9376   82.9581   15.3710 O.3     1  UNL1       -0.3538
     37 C          63.9948   83.9804   15.0759 C.3     1  UNL1        0.1422
     38 C          64.5045   84.1495   13.6754 C.3     1  UNL1        0.0326
@<TRIPOS>BOND
     1    16    17    1
     2    17    15    1
     3    15    14    1
     4    14    13    1
     5    13    12    1
     6    12     4    1
     7     4     5   ar
     8     5     6   ar
     9     6     1    1
    10     1     2    2
    11     1     3   am
    12     3    21    1
    13    22    21    1
    14    22    23    1
    15    23    24    1
    16    24    25    1
    17    25    26    1
    18    26    28    1
    19    28    29   am
    20    29    30    2
    21    29    32    1
    22    32    33    1
    23    33    34    1
    24    34    35    1
    25    35    36    1
    26    36    37    1
    27    37    38    1
    28     3    18    1
    29    18    19    1
    30    18    20    1
    31     6     7   ar
    32     7     8   ar
    33     8     9   ar
    34     9    10    1
    35    10    11    1
    36     9     4   ar
    37    26    22    1
    38    38    33    1
    39    24    27    1
    40    28    31    1
@<TRIPOS>MOLECULE
*****
 38 40 0 0 0
SMALL
GASTEIGER

@<TRIPOS>ATOM
      1 C          62.6690   88.4235   12.2660 C.2     1  UNL1        0.2491
      2 O          63.1359   87.0699   12.7129 O.2     1  UNL1       -0.2699
      3 N          61.4039   88.5558   11.4710 N.am    1  UNL1       -0.2776
      4 C          64.5135   91.9208   11.9244 C.ar    1  UNL1        0.1723
      5 C          63.7153   90.6995   11.5765 C.ar    1  UNL1        0.0446
      6 C          63.4673   89.6449   12.6139 C.ar    1  UNL1        0.0568
      7 C          64.0176   89.8116   13.9993 C.ar    1  UNL1        0.0078
      8 C          64.8158   91.0330   14.3472 C.ar    1  UNL1        0.0402
      9 C          65.0638   92.0876   13.3098 C.ar    1  UNL1        0.1724
     10 O          65.8621   93.3090   13.6578 O.3     1  UNL1       -0.4684
     11 C          67.0956   93.1833   14.5019 C.3     1  UNL1        0.2526
     12 O          64.7615   92.9754   10.8869 O.3     1  UNL1       -0.4723
     13 C          66.1340   93.1495   10.3075 C.3     1  UNL1        0.2082
     14 C          66.6964   94.5262   10.1116 C.3     1  UNL1        0.0794
     15 C          67.9106   94.7253    9.2536 C.3     1  UNL1        0.1461
     16 C          69.0191   92.3953    8.9498 C.3     1  UNL1        0.1741
     17 O          69.0966   93.8205    9.4109 O.3     1  UNL1       -0.3510
     18 C          60.9370   89.9094   11.0241 C.3     1  UNL1        0.0757
     19 C          61.5350   90.5437    9.8034 C.3     1  UNL1        0.0215
     20 C          59.8722   90.6287   11.7978 C.3     1  UNL1        0.0215
     21 C          60.6056   87.3345   11.1230 C.3     1  UNL1        0.0967
     22 C          60.3423   86.9949    9.6859 C.3     1  UNL1        0.0549
     23 C          59.5049   87.7925    8.7306 C.3     1  UNL1        0.0720
     24 N          59.5153   87.0886    7.4060 N.3     1  UNL1       -0.2960
     25 C          60.3591   85.8560    7.5426 C.3     1  UNL1        0.0884
     26 C          60.8702   85.7981    8.9517 C.3     1  UNL1        0.0902
     27 H          59.9098   87.7008    6.6918 H       1  UNL1        0.1233
     28 N          61.7541   84.7308    9.5257 N.am    1  UNL1       -0.3045
     29 C          63.2040   84.6732    9.1460 C.2     1  UNL1        0.2225
     30 O          63.7703   85.6830    8.1922 O.2     1  UNL1       -0.2751
     31 H          61.3825   84.0680   10.1517 H       1  UNL1        0.1494
     32 C          64.0879   83.6058    9.7201 C.3     1  UNL1        0.0852
     33 C          63.7816   83.0230   11.0678 C.3     1  UNL1        0.0141
     34 C          64.2043   83.7469   12.3117 C.3     1  UNL1        0.0326
     35 C          63.8980   83.1640   13.6594 C.3     1  UNL1        0.1422
     36 O          63.1690   81.8573   13.7634 O.3     1  UNL1       -0.3538
     37 C          62.7462   81.1334   12.5195 C.3     1  UNL1        0.1422
     38 C          63.0526   81.7162   11.1718 C.3     1  UNL1        0.0326
@<TRIPOS>BOND
     1    16    17    1
     2    17    15    1
     3    15    14    1
     4    14    13    1
     5    13    12    1
     6    12     4    1
     7     4     5   ar
     8     5     6   ar
     9     6     1    1
    10     1     2    2
    11     1     3   am
    12     3    21    1
    13    22    21    1
    14    22    23    1
    15    23    24    1
    16    24    25    1
    17    25    26    1
    18    26    28    1
    19    28    29   am
    20    29    30    2
    21    29    32    1
    22    32    33    1
    23    33    34    1
    24    34    35    1
    25    35    36    1
    26    36    37    1
    27    37    38    1
    28     3    18    1
    29    18    19    1
    30    18    20    1
    31     6     7   ar
    32     7     8   ar
    33     8     9   ar
    34     9    10    1
    35    10    11    1
    36     9     4   ar
    37    26    22    1
    38    38    33    1
    39    24    27    1
    40    28    31    1
@<TRIPOS>MOLECULE
*****
 38 40 0 0 0
SMALL
GASTEIGER

@<TRIPOS>ATOM
      1 C          62.7553   86.0598   10.9702 C.2     1  UNL1        0.2491
      2 O          63.1362   86.8708   12.1731 O.2     1  UNL1       -0.2699
      3 N          62.2153   86.7401    9.7472 N.am    1  UNL1       -0.2776
      4 C          62.3601   82.2605   12.0469 C.ar    1  UNL1        0.1723
      5 C          62.2011   83.7519   12.0268 C.ar    1  UNL1        0.0446
      6 C          62.9143   84.5683   10.9902 C.ar    1  UNL1        0.0568
      7 C          63.7866   83.8934    9.9735 C.ar    1  UNL1        0.0078
      8 C          63.9456   82.4020    9.9936 C.ar    1  UNL1        0.0402
      9 C          63.2323   81.5856   11.0303 C.ar    1  UNL1        0.1724
     10 O          63.3914   80.0941   11.0503 O.3     1  UNL1       -0.4684
     11 C          62.8839   79.2703    9.9040 C.3     1  UNL1        0.2526
     12 O          61.6468   81.4440   13.0835 O.3     1  UNL1       -0.4723
     13 C          61.7821   81.7924   14.5362 C.3     1  UNL1        0.2082
     14 C          62.8042   82.7992   14.9740 C.3     1  UNL1        0.0794
     15 C          62.3648   84.0977   15.5833 C.3     1  UNL1        0.1461
     16 C          64.5594   85.3256   14.9306 C.3     1  UNL1        0.1741
     17 O          63.0953   85.3658   15.2540 O.3     1  UNL1       -0.3510
     18 C          61.8344   85.9289    8.5443 C.3     1  UNL1        0.0757
     19 C          60.3946   85.8211    8.1377 C.3     1  UNL1        0.0215
     20 C          62.8933   85.2257    7.7480 C.3     1  UNL1        0.0215
     21 C          62.0563   88.2315    9.7272 C.3     1  UNL1        0.0967
     22 C          61.1588   88.9035   10.7236 C.3     1  UNL1        0.0549
     23 C          59.6590   88.9069   10.6977 C.3     1  UNL1        0.0720
     24 N          59.1768   89.6956   11.8790 N.3     1  UNL1       -0.2960
     25 C          60.3785   90.1796   12.6350 C.3     1  UNL1        0.0884
     26 C          61.6034   89.6901   11.9209 C.3     1  UNL1        0.0902
     27 H          58.6049   89.1030   12.4808 H       1  UNL1        0.1233
     28 N          63.0237   89.9428   12.3320 N.am    1  UNL1       -0.3045
     29 C          63.3915   89.9625   13.7860 C.2     1  UNL1        0.2225
     30 O          62.3390   89.7296   14.8291 O.2     1  UNL1       -0.2751
     31 H          63.7145   90.0957   11.6474 H       1  UNL1        0.1494
     32 C          64.8118   90.2152   14.1971 C.3     1  UNL1        0.0852
     33 C          65.4565   91.5354   13.8948 C.3     1  UNL1        0.0141
     34 C          66.2577   92.2381   14.9505 C.3     1  UNL1        0.0326
     35 C          66.9024   93.5583   14.6482 C.3     1  UNL1        0.1422
     36 O          66.7460   94.1759   13.2903 O.3     1  UNL1       -0.3538
     37 C          65.9448   93.4733   12.2346 C.3     1  UNL1        0.1422
     38 C          65.3001   92.1531   12.5369 C.3     1  UNL1        0.0326
@<TRIPOS>BOND
     1    16    17    1
     2    17    15    1
     3    15    14    1
     4    14    13    1
     5    13    12    1
     6    12     4    1
     7     4     5   ar
     8     5     6   ar
     9     6     1    1
    10     1     2    2
    11     1     3   am
    12     3    21    1
    13    22    21    1
    14    22    23    1
    15    23    24    1
    16    24    25    1
    17    25    26    1
    18    26    28    1
    19    28    29   am
    20    29    30    2
    21    29    32    1
    22    32    33    1
    23    33    34    1
    24    34    35    1
    25    35    36    1
    26    36    37    1
    27    37    38    1
    28     3    18    1
    29    18    19    1
    30    18    20    1
    31     6     7   ar
    32     7     8   ar
    33     8     9   ar
    34     9    10    1
    35    10    11    1
    36     9     4   ar
    37    26    22    1
    38    38    33    1
    39    24    27    1
    40    28    31    1
@<TRIPOS>MOLECULE
*****
 38 40 0 0 0
SMALL
GASTEIGER

@<TRIPOS>ATOM
      1 C          62.2944   85.5830   11.7709 C.2     1  UNL1        0.2491
      2 O          61.9950   85.7045   13.2357 O.2     1  UNL1       -0.2699
      3 N          63.2073   84.4991   11.2794 N.am    1  UNL1       -0.2776
      4 C          61.4584   88.9556    9.8534 C.ar    1  UNL1        0.1723
      5 C          62.0720   87.9932   10.8266 C.ar    1  UNL1        0.0446
      6 C          61.6807   86.5454   10.7976 C.ar    1  UNL1        0.0568
      7 C          60.6758   86.0601    9.7954 C.ar    1  UNL1        0.0078
      8 C          60.0621   87.0224    8.8222 C.ar    1  UNL1        0.0402
      9 C          60.4535   88.4702    8.8512 C.ar    1  UNL1        0.1724
     10 O          59.8398   89.4326    7.8779 O.3     1  UNL1       -0.4684
     11 C          59.0229   88.9192    6.7294 C.3     1  UNL1        0.2526
     12 O          61.8497   90.4033    9.8823 O.3     1  UNL1       -0.4723
     13 C          63.2034   90.8044   10.3891 C.3     1  UNL1        0.2082
     14 C          63.4044   91.0868   11.8485 C.3     1  UNL1        0.0794
     15 C          64.6697   91.7414   12.3184 C.3     1  UNL1        0.1461
     16 C          66.1583   91.9442   14.4380 C.3     1  UNL1        0.1741
     17 O          64.8298   92.1139   13.7625 O.3     1  UNL1       -0.3510
     18 C          63.5067   84.3776    9.8145 C.3     1  UNL1        0.0757
     19 C          64.0167   83.0814    9.2583 C.3     1  UNL1        0.0215
     20 C          63.2958   85.5524    8.9060 C.3     1  UNL1        0.0215
     21 C          63.8210   83.5367   12.2526 C.3     1  UNL1        0.0967
     22 C          63.0075   82.4006   12.7980 C.3     1  UNL1        0.0549
     23 C          62.8350   81.0539   12.1603 C.3     1  UNL1        0.0720
     24 N          61.9446   80.2326   13.0450 N.3     1  UNL1       -0.2960
     25 C          61.5668   81.0718   14.2296 C.3     1  UNL1        0.0884
     26 C          62.2238   82.4116   14.0769 C.3     1  UNL1        0.0902
     27 H          62.4410   79.3978   13.3564 H       1  UNL1        0.1233
     28 N          62.1158   83.5608   15.0349 N.am    1  UNL1       -0.3045
     29 C          63.3165   83.9976   15.8206 C.2     1  UNL1        0.2225
     30 O          64.6254   83.2853   15.6483 O.2     1  UNL1       -0.2751
     31 H          61.2568   84.0283   15.1480 H       1  UNL1        0.1494
     32 C          63.2085   85.1467   16.7787 C.3     1  UNL1        0.0852
     33 C          63.4457   86.5480   16.2989 C.3     1  UNL1        0.0141
     34 C          64.2263   86.7880   15.0407 C.3     1  UNL1        0.0326
     35 C          64.4635   88.1892   14.5609 C.3     1  UNL1        0.1422
     36 O          63.9200   89.3506   15.3393 O.3     1  UNL1       -0.3538
     37 C          63.1393   89.1106   16.5975 C.3     1  UNL1        0.1422
     38 C          62.9022   87.7093   17.0772 C.3     1  UNL1        0.0326
@<TRIPOS>BOND
     1    16    17    1
     2    17    15    1
     3    15    14    1
     4    14    13    1
     5    13    12    1
     6    12     4    1
     7     4     5   ar
     8     5     6   ar
     9     6     1    1
    10     1     2    2
    11     1     3   am
    12     3    21    1
    13    22    21    1
    14    22    23    1
    15    23    24    1
    16    24    25    1
    17    25    26    1
    18    26    28    1
    19    28    29   am
    20    29    30    2
    21    29    32    1
    22    32    33    1
    23    33    34    1
    24    34    35    1
    25    35    36    1
    26    36    37    1
    27    37    38    1
    28     3    18    1
    29    18    19    1
    30    18    20    1
    31     6     7   ar
    32     7     8   ar
    33     8     9   ar
    34     9    10    1
    35    10    11    1
    36     9     4   ar
    37    26    22    1
    38    38    33    1
    39    24    27    1
    40    28    31    1
@<TRIPOS>MOLECULE
*****
 38 40 0 0 0
SMALL
GASTEIGER

@<TRIPOS>ATOM
      1 C          62.9172   86.0332   11.1247 C.2     1  UNL1        0.2491
      2 O          63.3158   86.7926   12.3553 O.2     1  UNL1       -0.2699
      3 N          62.4462   86.7720    9.9072 N.am    1  UNL1       -0.2776
      4 C          62.3144   82.2408   12.1272 C.ar    1  UNL1        0.1723
      5 C          62.2422   83.7390   12.1403 C.ar    1  UNL1        0.0446
      6 C          62.9895   84.5349   11.1116 C.ar    1  UNL1        0.0568
      7 C          63.8090   83.8327   10.0700 C.ar    1  UNL1        0.0078
      8 C          63.8813   82.3345   10.0569 C.ar    1  UNL1        0.0402
      9 C          63.1340   81.5386   11.0855 C.ar    1  UNL1        0.1724
     10 O          63.2063   80.0403   11.0724 O.3     1  UNL1       -0.4684
     11 C          62.8733   79.2844    9.8204 C.3     1  UNL1        0.2526
     12 O          61.5671   81.4449   13.1558 O.3     1  UNL1       -0.4723
     13 C          61.7013   81.7854   14.6105 C.3     1  UNL1        0.2082
     14 C          62.7549   82.7539   15.0600 C.3     1  UNL1        0.0794
     15 C          62.3577   84.0432   15.7157 C.3     1  UNL1        0.1461
     16 C          63.4748   86.2697   16.4536 C.3     1  UNL1        0.1741
     17 O          63.0762   85.3134   15.3689 O.3     1  UNL1       -0.3510
     18 C          62.0476   86.0125    8.6766 C.3     1  UNL1        0.0757
     19 C          60.5997   85.8989    8.3015 C.3     1  UNL1        0.0215
     20 C          63.0969   85.3667    7.8211 C.3     1  UNL1        0.0215
     21 C          62.3739   88.2702    9.9203 C.3     1  UNL1        0.0967
     22 C          61.2881   88.9620   10.6900 C.3     1  UNL1        0.0549
     23 C          59.8129   88.7590   10.5096 C.3     1  UNL1        0.0720
     24 N          59.0999   89.6498   11.4833 N.3     1  UNL1       -0.2960
     25 C          60.1345   90.4034   12.2655 C.3     1  UNL1        0.0884
     26 C          61.4869   89.9782   11.7751 C.3     1  UNL1        0.0902
     27 H          58.5307   89.0865   12.1151 H       1  UNL1        0.1233
     28 N          62.8064   90.4812   12.2812 N.am    1  UNL1       -0.3045
     29 C          63.6670   91.3421   11.4049 C.2     1  UNL1        0.2225
     30 O          63.2082   91.7002   10.0223 O.2     1  UNL1       -0.2751
     31 H          63.1075   90.2462   13.1886 H       1  UNL1        0.1494
     32 C          64.9864   91.8450   11.9109 C.3     1  UNL1        0.0852
     33 C          65.8269   92.7420   11.0512 C.3     1  UNL1        0.0141
     34 C          67.0300   92.1915   10.3445 C.3     1  UNL1        0.0326
     35 C          67.8705   93.0884    9.4848 C.3     1  UNL1        0.1422
     36 O          67.5079   94.5359    9.3318 O.3     1  UNL1       -0.3538
     37 C          66.3048   95.0863   10.0385 C.3     1  UNL1        0.1422
     38 C          65.4643   94.1894   10.8982 C.3     1  UNL1        0.0326
@<TRIPOS>BOND
     1    16    17    1
     2    17    15    1
     3    15    14    1
     4    14    13    1
     5    13    12    1
     6    12     4    1
     7     4     5   ar
     8     5     6   ar
     9     6     1    1
    10     1     2    2
    11     1     3   am
    12     3    21    1
    13    22    21    1
    14    22    23    1
    15    23    24    1
    16    24    25    1
    17    25    26    1
    18    26    28    1
    19    28    29   am
    20    29    30    2
    21    29    32    1
    22    32    33    1
    23    33    34    1
    24    34    35    1
    25    35    36    1
    26    36    37    1
    27    37    38    1
    28     3    18    1
    29    18    19    1
    30    18    20    1
    31     6     7   ar
    32     7     8   ar
    33     8     9   ar
    34     9    10    1
    35    10    11    1
    36     9     4   ar
    37    26    22    1
    38    38    33    1
    39    24    27    1
    40    28    31    1
@<TRIPOS>MOLECULE
*****
 38 40 0 0 0
SMALL
GASTEIGER

@<TRIPOS>ATOM
      1 C          64.9881   85.5616   14.5961 C.2     1  UNL1        0.2491
      2 O          66.4664   85.3076   14.5938 O.2     1  UNL1       -0.2699
      3 N          64.0471   84.5181   14.0712 N.am    1  UNL1       -0.2776
      4 C          64.0793   89.4162   14.8529 C.ar    1  UNL1        0.1723
      5 C          64.6166   88.1188   14.3258 C.ar    1  UNL1        0.0446
      6 C          64.4508   86.8591   15.1232 C.ar    1  UNL1        0.0568
      7 C          63.7477   86.8970   16.4476 C.ar    1  UNL1        0.0078
      8 C          63.2104   88.1944   16.9747 C.ar    1  UNL1        0.0402
      9 C          63.3762   89.4541   16.1773 C.ar    1  UNL1        0.1724
     10 O          62.8389   90.7516   16.7044 O.3     1  UNL1       -0.4684
     11 C          63.7546   91.9267   16.8794 C.3     1  UNL1        0.2526
     12 O          64.2452   90.6759   14.0555 O.3     1  UNL1       -0.4723
     13 C          65.6165   91.2284   13.8026 C.3     1  UNL1        0.2082
     14 C          65.7782   92.5315   13.0774 C.3     1  UNL1        0.0794
     15 C          66.5581   93.6479   13.7062 C.3     1  UNL1        0.1461
     16 C          68.0990   93.4385   15.7875 C.3     1  UNL1        0.1741
     17 O          67.9083   93.3774   14.3009 O.3     1  UNL1       -0.3510
     18 C          62.5687   84.7721   14.0735 C.3     1  UNL1        0.0757
     19 C          61.9319   85.5052   12.9303 C.3     1  UNL1        0.0215
     20 C          61.7271   84.2929   15.2190 C.3     1  UNL1        0.0215
     21 C          64.5843   83.2206   13.5441 C.3     1  UNL1        0.0967
     22 C          63.6404   82.1311   13.1294 C.3     1  UNL1        0.0549
     23 C          63.4307   80.8277   13.8416 C.3     1  UNL1        0.0720
     24 N          62.4011   80.0448   13.0821 N.3     1  UNL1       -0.2960
     25 C          61.9744   80.8643   11.9004 C.3     1  UNL1        0.0884
     26 C          62.7403   82.1537   11.9297 C.3     1  UNL1        0.0902
     27 H          61.5974   79.8570   13.6814 H       1  UNL1        0.1233
     28 N          62.6261   83.2698   10.9340 N.am    1  UNL1       -0.3045
     29 C          63.7427   83.5290    9.9666 C.2     1  UNL1        0.2225
     30 O          64.9736   82.6722    9.9948 O.2     1  UNL1       -0.2751
     31 H          61.8183   83.8322   10.9155 H       1  UNL1        0.1494
     32 C          63.6285   84.6451    8.9710 C.3     1  UNL1        0.0852
     33 C          62.3889   85.4887    8.9287 C.3     1  UNL1        0.0141
     34 C          62.1762   86.5610    9.9558 C.3     1  UNL1        0.0326
     35 C          60.9366   87.4046    9.9136 C.3     1  UNL1        0.1422
     36 O          59.9097   87.1759    8.8444 O.3     1  UNL1       -0.3538
     37 C          60.1225   86.1035    7.8173 C.3     1  UNL1        0.1422
     38 C          61.3621   85.2599    7.8596 C.3     1  UNL1        0.0326
@<TRIPOS>BOND
     1    16    17    1
     2    17    15    1
     3    15    14    1
     4    14    13    1
     5    13    12    1
     6    12     4    1
     7     4     5   ar
     8     5     6   ar
     9     6     1    1
    10     1     2    2
    11     1     3   am
    12     3    21    1
    13    22    21    1
    14    22    23    1
    15    23    24    1
    16    24    25    1
    17    25    26    1
    18    26    28    1
    19    28    29   am
    20    29    30    2
    21    29    32    1
    22    32    33    1
    23    33    34    1
    24    34    35    1
    25    35    36    1
    26    36    37    1
    27    37    38    1
    28     3    18    1
    29    18    19    1
    30    18    20    1
    31     6     7   ar
    32     7     8   ar
    33     8     9   ar
    34     9    10    1
    35    10    11    1
    36     9     4   ar
    37    26    22    1
    38    38    33    1
    39    24    27    1
    40    28    31    1
