@<TRIPOS>MOLECULE
*****
 24 26 0 0 0
SMALL
GASTEIGER

@<TRIPOS>ATOM
      1 C          63.4994   85.9362   16.0191 C.3     1  UNL1        0.0838
      2 C          62.9926   87.0401   16.8991 C.3     1  UNL1        0.0437
      3 C          63.4437   88.3448   16.3125 C.ar    1  UNL1       -0.0247
      4 C          63.2406   89.7653   16.7492 C.ar    1  UNL1       -0.0045
      5 C          63.8231   90.8883   15.9433 C.ar    1  UNL1       -0.0002
      6 C          64.6087   90.5908   14.7006 C.ar    1  UNL1        0.0034
      7 C          64.8118   89.1703   14.2638 C.ar    1  UNL1       -0.0044
      8 C          64.2293   88.0473   15.0697 C.ar    1  UNL1       -0.0247
      9 C          64.2637   86.5587   14.8884 C.3     1  UNL1        0.0437
     10 C          65.1912   91.7139   13.8947 C.ar    1  UNL1        0.0460
     11 C          64.8107   91.8785   12.4532 C.ar    1  UNL1        0.0054
     12 C          65.3932   93.0016   11.6473 C.ar    1  UNL1        0.0208
     13 C          66.3562   93.9600   12.2829 C.ar    1  UNL1        0.1013
     14 N          66.7367   93.7953   13.7246 N.ar    1  UNL1       -0.2165
     15 C          66.1542   92.6723   14.5304 C.ar    1  UNL1        0.2222
     16 F          66.5347   92.5076   15.9720 F       1  UNL1       -0.1832
     17 N          63.2804   84.4676   16.2322 N.3     1  UNL1       -0.1841
     18 H          64.1608   84.0857   16.5777 H       1  UNL1        0.1484
     19 S          62.8516   83.5993   15.0867 S.O2    1  UNL1        0.0390
     20 O          61.6340   84.4540   14.8946 O.2     1  UNL1       -0.1576
     21 O          64.0692   82.7446   15.2789 O.2     1  UNL1       -0.1576
     22 C          62.7580   83.1265   12.5337 C.3     1  UNL1        0.0270
     23 C          62.4227   82.7309   13.9412 C.3     1  UNL1        0.1457
     24 C          61.6586   81.4670   14.2033 C.3     1  UNL1        0.0270
@<TRIPOS>BOND
     1    22    23    1
     2    23    24    1
     3    23    19    1
     4    19    20    2
     5    19    21    2
     6    19    17    1
     7    17     1    1
     8     1     2    1
     9     2     3    1
    10     3     4   ar
    11     4     5   ar
    12     5     6   ar
    13     6    10    1
    14    10    11   ar
    15    11    12   ar
    16    12    13   ar
    17    13    14   ar
    18    14    15   ar
    19    15    16    1
    20     6     7   ar
    21     7     8   ar
    22     8     9    1
    23     9     1    1
    24     8     3   ar
    25    15    10   ar
    26    17    18    1
@<TRIPOS>MOLECULE
*****
 24 26 0 0 0
SMALL
GASTEIGER

@<TRIPOS>ATOM
      1 C          61.4774   89.8046   11.0009 C.3     1  UNL1        0.0838
      2 C          62.2608   90.7190   10.1064 C.3     1  UNL1        0.0437
      3 C          63.4436   91.2223   10.8794 C.ar    1  UNL1       -0.0247
      4 C          64.5615   92.1521   10.5110 C.ar    1  UNL1       -0.0045
      5 C          65.6271   92.4785   11.5150 C.ar    1  UNL1       -0.0002
      6 C          65.5747   91.8752   12.8873 C.ar    1  UNL1        0.0034
      7 C          64.4567   90.9455   13.2557 C.ar    1  UNL1       -0.0044
      8 C          63.3912   90.6191   12.2518 C.ar    1  UNL1       -0.0247
      9 C          62.1760   89.7429   12.3268 C.3     1  UNL1        0.0437
     10 C          66.6403   92.2017   13.8913 C.ar    1  UNL1        0.0460
     11 C          66.2589   92.6575   15.2685 C.ar    1  UNL1        0.0054
     12 C          67.3245   92.9840   16.2725 C.ar    1  UNL1        0.0208
     13 C          68.7716   92.8547   15.8992 C.ar    1  UNL1        0.1013
     14 N          69.1530   92.3990   14.5219 N.ar    1  UNL1       -0.2165
     15 C          68.0874   92.0725   13.5180 C.ar    1  UNL1        0.2222
     16 F          68.4688   91.6167   12.1407 F       1  UNL1       -0.1832
     17 N          60.2167   89.0793   10.6339 N.3     1  UNL1       -0.1841
     18 H          59.8510   88.6708   11.4941 H       1  UNL1        0.1484
     19 S          60.2536   87.9800    9.6141 S.O2    1  UNL1        0.0390
     20 O          59.8047   88.9453    8.5574 O.2     1  UNL1       -0.1576
     21 O          60.7025   87.0147   10.6708 O.2     1  UNL1       -0.1576
     22 C          61.4990   85.9990    8.4852 C.3     1  UNL1        0.0270
     23 C          60.2905   86.8807    8.5941 C.3     1  UNL1        0.1457
     24 C          59.1188   86.6632    7.6832 C.3     1  UNL1        0.0270
@<TRIPOS>BOND
     1    22    23    1
     2    23    24    1
     3    23    19    1
     4    19    20    2
     5    19    21    2
     6    19    17    1
     7    17     1    1
     8     1     2    1
     9     2     3    1
    10     3     4   ar
    11     4     5   ar
    12     5     6   ar
    13     6    10    1
    14    10    11   ar
    15    11    12   ar
    16    12    13   ar
    17    13    14   ar
    18    14    15   ar
    19    15    16    1
    20     6     7   ar
    21     7     8   ar
    22     8     9    1
    23     9     1    1
    24     8     3   ar
    25    15    10   ar
    26    17    18    1
@<TRIPOS>MOLECULE
*****
 24 26 0 0 0
SMALL
GASTEIGER

@<TRIPOS>ATOM
      1 C          66.1399   93.5704   12.2161 C.3     1  UNL1        0.0838
      2 C          65.0714   92.9166   11.3910 C.3     1  UNL1        0.0437
      3 C          64.6148   91.6850   12.1153 C.ar    1  UNL1       -0.0247
      4 C          63.5846   90.6475   11.7803 C.ar    1  UNL1       -0.0045
      5 C          63.3409   89.5025   12.7182 C.ar    1  UNL1       -0.0002
      6 C          64.1272   89.3950   13.9910 C.ar    1  UNL1        0.0034
      7 C          65.1574   90.4326   14.3260 C.ar    1  UNL1       -0.0044
      8 C          65.4012   91.5775   13.3882 C.ar    1  UNL1       -0.0247
      9 C          66.3437   92.7428   13.4504 C.3     1  UNL1        0.0437
     10 C          63.8834   88.2500   14.9288 C.ar    1  UNL1        0.0460
     11 C          64.2848   86.8594   14.5350 C.ar    1  UNL1        0.0054
     12 C          64.0410   85.7144   15.4729 C.ar    1  UNL1        0.0208
     13 C          63.3957   85.9600   16.8045 C.ar    1  UNL1        0.1013
     14 N          62.9942   87.3506   17.1983 N.ar    1  UNL1       -0.2165
     15 C          63.2381   88.4956   16.2605 C.ar    1  UNL1        0.2222
     16 F          62.8366   89.8862   16.6543 F       1  UNL1       -0.1832
     17 N          66.8754   94.8305   11.8681 N.3     1  UNL1       -0.1841
     18 H          66.6795   95.5007   12.6116 H       1  UNL1        0.1484
     19 S          66.5947   95.5288   10.5706 S.O2    1  UNL1        0.0390
     20 O          67.6252   94.6778    9.8896 O.2     1  UNL1       -0.1576
     21 O          65.5642   96.3798   11.2516 O.2     1  UNL1       -0.1576
     22 C          67.3739   96.2964    8.2140 C.3     1  UNL1        0.0270
     23 C          66.3139   96.2271    9.2730 C.3     1  UNL1        0.1457
     24 C          64.9732   96.8560    9.0346 C.3     1  UNL1        0.0270
@<TRIPOS>BOND
     1    22    23    1
     2    23    24    1
     3    23    19    1
     4    19    20    2
     5    19    21    2
     6    19    17    1
     7    17     1    1
     8     1     2    1
     9     2     3    1
    10     3     4   ar
    11     4     5   ar
    12     5     6   ar
    13     6    10    1
    14    10    11   ar
    15    11    12   ar
    16    12    13   ar
    17    13    14   ar
    18    14    15   ar
    19    15    16    1
    20     6     7   ar
    21     7     8   ar
    22     8     9    1
    23     9     1    1
    24     8     3   ar
    25    15    10   ar
    26    17    18    1
@<TRIPOS>MOLECULE
*****
 24 26 0 0 0
SMALL
GASTEIGER

@<TRIPOS>ATOM
      1 C          65.1223   92.7061   12.0203 C.3     1  UNL1        0.0838
      2 C          64.8731   91.6054   13.0083 C.3     1  UNL1        0.0437
      3 C          64.0103   90.5733   12.3446 C.ar    1  UNL1       -0.0247
      4 C          63.4467   89.2718   12.8328 C.ar    1  UNL1       -0.0045
      5 C          62.5990   88.4332   11.9228 C.ar    1  UNL1       -0.0002
      6 C          62.3150   88.8961   10.5245 C.ar    1  UNL1        0.0034
      7 C          62.8786   90.1976   10.0363 C.ar    1  UNL1       -0.0044
      8 C          63.7263   91.0362   10.9464 C.ar    1  UNL1       -0.0247
      9 C          64.4135   92.3544   10.7460 C.3     1  UNL1        0.0437
     10 C          61.4672   88.0575    9.6145 C.ar    1  UNL1        0.0460
     11 C          61.9111   86.6748    9.2390 C.ar    1  UNL1        0.0054
     12 C          61.0634   85.8361    8.3289 C.ar    1  UNL1        0.0208
     13 C          59.7718   86.3803    7.7945 C.ar    1  UNL1        0.1013
     14 N          59.3279   87.7631    8.1700 N.ar    1  UNL1       -0.2165
     15 C          60.1756   88.6016    9.0800 C.ar    1  UNL1        0.2222
     16 F          59.7318   89.9844    9.4556 F       1  UNL1       -0.1832
     17 N          65.9371   93.9417   12.2638 N.3     1  UNL1       -0.1841
     18 H          65.3226   94.6139   12.7232 H       1  UNL1        0.1484
     19 S          66.5771   94.6573   11.1113 S.O2    1  UNL1        0.0390
     20 O          67.4376   93.4581   10.8445 O.2     1  UNL1       -0.1576
     21 O          65.7166   95.8566   11.3782 O.2     1  UNL1       -0.1576
     22 C          67.0479   96.8558    9.8094 C.3     1  UNL1        0.0270
     23 C          67.2172   95.3729    9.9588 C.3     1  UNL1        0.1457
     24 C          68.0264   94.6056    8.9556 C.3     1  UNL1        0.0270
@<TRIPOS>BOND
     1    22    23    1
     2    23    24    1
     3    23    19    1
     4    19    20    2
     5    19    21    2
     6    19    17    1
     7    17     1    1
     8     1     2    1
     9     2     3    1
    10     3     4   ar
    11     4     5   ar
    12     5     6   ar
    13     6    10    1
    14    10    11   ar
    15    11    12   ar
    16    12    13   ar
    17    13    14   ar
    18    14    15   ar
    19    15    16    1
    20     6     7   ar
    21     7     8   ar
    22     8     9    1
    23     9     1    1
    24     8     3   ar
    25    15    10   ar
    26    17    18    1
@<TRIPOS>MOLECULE
*****
 24 26 0 0 0
SMALL
GASTEIGER

@<TRIPOS>ATOM
      1 C          62.2516   89.1536   11.5340 C.3     1  UNL1        0.0838
      2 C          63.0437   89.5144   12.7556 C.3     1  UNL1        0.0437
      3 C          63.8955   90.7029   12.4214 C.ar    1  UNL1       -0.0247
      4 C          64.8788   91.4932   13.2330 C.ar    1  UNL1       -0.0045
      5 C          65.5964   92.6571   12.6164 C.ar    1  UNL1       -0.0002
      6 C          65.3308   93.0308   11.1882 C.ar    1  UNL1        0.0034
      7 C          64.3476   92.2406   10.3766 C.ar    1  UNL1       -0.0044
      8 C          63.6299   91.0767   10.9932 C.ar    1  UNL1       -0.0247
      9 C          62.6139   90.1191   10.4447 C.3     1  UNL1        0.0437
     10 C          66.0485   94.1948   10.5716 C.ar    1  UNL1        0.0460
     11 C          65.6421   95.5962   10.9195 C.ar    1  UNL1        0.0054
     12 C          66.3598   96.7602   10.3029 C.ar    1  UNL1        0.0208
     13 C          67.4838   96.5228    9.3385 C.ar    1  UNL1        0.1013
     14 N          67.8902   95.1213    8.9906 N.ar    1  UNL1       -0.2165
     15 C          67.1725   93.9574    9.6072 C.ar    1  UNL1        0.2222
     16 F          67.5789   92.5560    9.2593 F       1  UNL1       -0.1832
     17 N          61.2696   88.0253   11.4214 N.3     1  UNL1       -0.1841
     18 H          61.4747   87.3792   12.1835 H       1  UNL1        0.1484
     19 S          61.2075   87.2076   10.1654 S.O2    1  UNL1        0.0390
     20 O          59.9325   87.8971    9.7795 O.2     1  UNL1       -0.1576
     21 O          62.4824   86.5181   10.5513 O.2     1  UNL1       -0.1576
     22 C          62.3610   85.6504    8.4349 C.3     1  UNL1        0.0270
     23 C          61.1453   86.3899    8.9094 C.3     1  UNL1        0.1457
     24 C          59.8674   86.3117    8.1278 C.3     1  UNL1        0.0270
@<TRIPOS>BOND
     1    22    23    1
     2    23    24    1
     3    23    19    1
     4    19    20    2
     5    19    21    2
     6    19    17    1
     7    17     1    1
     8     1     2    1
     9     2     3    1
    10     3     4   ar
    11     4     5   ar
    12     5     6   ar
    13     6    10    1
    14    10    11   ar
    15    11    12   ar
    16    12    13   ar
    17    13    14   ar
    18    14    15   ar
    19    15    16    1
    20     6     7   ar
    21     7     8   ar
    22     8     9    1
    23     9     1    1
    24     8     3   ar
    25    15    10   ar
    26    17    18    1
@<TRIPOS>MOLECULE
*****
 24 26 0 0 0
SMALL
GASTEIGER

@<TRIPOS>ATOM
      1 C          63.6820   90.2082   13.0643 C.3     1  UNL1        0.0838
      2 C          62.8998   89.8080   11.8486 C.3     1  UNL1        0.0437
      3 C          62.7708   88.3136   11.8515 C.ar    1  UNL1       -0.0247
      4 C          62.1045   87.3618   10.9028 C.ar    1  UNL1       -0.0045
      5 C          62.1407   85.8866   11.1717 C.ar    1  UNL1       -0.0002
      6 C          62.8432   85.3631   12.3893 C.ar    1  UNL1        0.0034
      7 C          63.5095   86.3149   13.3380 C.ar    1  UNL1       -0.0044
      8 C          63.4733   87.7902   13.0691 C.ar    1  UNL1       -0.0247
      9 C          64.0364   88.9611   13.8187 C.3     1  UNL1        0.0437
     10 C          62.8793   83.8878   12.6582 C.ar    1  UNL1        0.0460
     11 C          63.1923   82.9304   11.5468 C.ar    1  UNL1        0.0054
     12 C          63.2284   81.4551   11.8157 C.ar    1  UNL1        0.0208
     13 C          62.9515   80.9373   13.1960 C.ar    1  UNL1        0.1013
     14 N          62.6385   81.8948   14.3074 N.ar    1  UNL1       -0.2165
     15 C          62.6024   83.3701   14.0385 C.ar    1  UNL1        0.2222
     16 F          62.2894   84.3276   15.1500 F       1  UNL1       -0.1832
     17 N          64.0458   91.6095   13.4568 N.3     1  UNL1       -0.1841
     18 H          63.9696   92.1803   12.6149 H       1  UNL1        0.1484
     19 S          65.3918   91.8957   14.0537 S.O2    1  UNL1        0.0390
     20 O          66.0024   91.8814   12.6836 O.2     1  UNL1       -0.1576
     21 O          64.7813   91.9100   15.4237 O.2     1  UNL1       -0.1576
     22 C          66.8396   92.7360   16.0406 C.3     1  UNL1        0.0270
     23 C          66.7380   92.1819   14.6505 C.3     1  UNL1        0.1457
     24 C          67.9824   91.9140   13.8571 C.3     1  UNL1        0.0270
@<TRIPOS>BOND
     1    22    23    1
     2    23    24    1
     3    23    19    1
     4    19    20    2
     5    19    21    2
     6    19    17    1
     7    17     1    1
     8     1     2    1
     9     2     3    1
    10     3     4   ar
    11     4     5   ar
    12     5     6   ar
    13     6    10    1
    14    10    11   ar
    15    11    12   ar
    16    12    13   ar
    17    13    14   ar
    18    14    15   ar
    19    15    16    1
    20     6     7   ar
    21     7     8   ar
    22     8     9    1
    23     9     1    1
    24     8     3   ar
    25    15    10   ar
    26    17    18    1
@<TRIPOS>MOLECULE
*****
 24 26 0 0 0
SMALL
GASTEIGER

@<TRIPOS>ATOM
      1 C          63.3498   84.7086   15.7400 C.3     1  UNL1        0.0838
      2 C          62.8122   85.6851   16.7438 C.3     1  UNL1        0.0437
      3 C          63.2268   87.0626   16.3186 C.ar    1  UNL1       -0.0247
      4 C          62.9841   88.4146   16.9210 C.ar    1  UNL1       -0.0045
      5 C          63.5352   89.6415   16.2569 C.ar    1  UNL1       -0.0002
      6 C          64.3290   89.5163   14.9904 C.ar    1  UNL1        0.0034
      7 C          64.5717   88.1642   14.3879 C.ar    1  UNL1       -0.0044
      8 C          64.0207   86.9374   15.0520 C.ar    1  UNL1       -0.0247
      9 C          64.0966   85.4826   14.6945 C.3     1  UNL1        0.0437
     10 C          64.8801   90.7432   14.3263 C.ar    1  UNL1        0.0460
     11 C          66.0161   91.4918   14.9580 C.ar    1  UNL1        0.0054
     12 C          66.5672   92.7188   14.2939 C.ar    1  UNL1        0.0208
     13 C          65.9823   93.1971   12.9981 C.ar    1  UNL1        0.1013
     14 N          64.8462   92.4484   12.3664 N.ar    1  UNL1       -0.2165
     15 C          64.2952   91.2215   13.0305 C.ar    1  UNL1        0.2222
     16 F          63.1591   90.4729   12.3988 F       1  UNL1       -0.1832
     17 N          63.1717   83.2197   15.7756 N.3     1  UNL1       -0.1841
     18 H          64.0347   82.8289   16.1538 H       1  UNL1        0.1484
     19 S          62.8743   82.4695   14.5112 S.O2    1  UNL1        0.0390
     20 O          64.1730   81.7308   14.6440 O.2     1  UNL1       -0.1576
     21 O          61.5756   83.2081   14.3785 O.2     1  UNL1       -0.1576
     22 C          62.6364   82.4247   11.9244 C.3     1  UNL1        0.0270
     23 C          62.5769   81.7192   13.2468 C.3     1  UNL1        0.1457
     24 C          62.2200   80.2634   13.3048 C.3     1  UNL1        0.0270
@<TRIPOS>BOND
     1    22    23    1
     2    23    24    1
     3    23    19    1
     4    19    20    2
     5    19    21    2
     6    19    17    1
     7    17     1    1
     8     1     2    1
     9     2     3    1
    10     3     4   ar
    11     4     5   ar
    12     5     6   ar
    13     6    10    1
    14    10    11   ar
    15    11    12   ar
    16    12    13   ar
    17    13    14   ar
    18    14    15   ar
    19    15    16    1
    20     6     7   ar
    21     7     8   ar
    22     8     9    1
    23     9     1    1
    24     8     3   ar
    25    15    10   ar
    26    17    18    1
@<TRIPOS>MOLECULE
*****
 24 26 0 0 0
SMALL
GASTEIGER

@<TRIPOS>ATOM
      1 C          63.6557   89.7938   13.2936 C.3     1  UNL1        0.0838
      2 C          64.3097   89.0748   14.4361 C.3     1  UNL1        0.0437
      3 C          64.1756   87.6005   14.1937 C.ar    1  UNL1       -0.0247
      4 C          64.6293   86.4083   14.9828 C.ar    1  UNL1       -0.0045
      5 C          64.3461   85.0240   14.4796 C.ar    1  UNL1       -0.0002
      6 C          63.6092   84.8318   13.1872 C.ar    1  UNL1        0.0034
      7 C          63.1556   86.0241   12.3981 C.ar    1  UNL1       -0.0044
      8 C          63.4388   87.4084   12.9014 C.ar    1  UNL1       -0.0247
      9 C          63.1175   88.7639   12.3451 C.3     1  UNL1        0.0437
     10 C          63.3261   83.4474   12.6840 C.ar    1  UNL1        0.0460
     11 C          63.8280   83.0221   11.3360 C.ar    1  UNL1        0.0054
     12 C          63.5448   81.6376   10.8328 C.ar    1  UNL1        0.0208
     13 C          62.7597   80.6785   11.6776 C.ar    1  UNL1        0.1013
     14 N          62.2578   81.1039   13.0257 N.ar    1  UNL1       -0.2165
     15 C          62.5410   82.4883   13.5289 C.ar    1  UNL1        0.2222
     16 F          62.0390   82.9136   14.8769 F       1  UNL1       -0.1832
     17 N          63.5573   91.2814   13.1285 N.3     1  UNL1       -0.1841
     18 H          62.8070   91.4544   12.4596 H       1  UNL1        0.1484
     19 S          64.7469   92.0640   12.6569 S.O2    1  UNL1        0.0390
     20 O          64.3851   91.7564   11.2341 O.2     1  UNL1       -0.1576
     21 O          65.1086   92.3716   14.0797 O.2     1  UNL1       -0.1576
     22 C          66.5783   93.8548   13.0916 C.3     1  UNL1        0.0270
     23 C          65.9365   92.8466   12.1852 C.3     1  UNL1        0.1457
     24 C          66.4841   92.6211   10.8071 C.3     1  UNL1        0.0270
@<TRIPOS>BOND
     1    22    23    1
     2    23    24    1
     3    23    19    1
     4    19    20    2
     5    19    21    2
     6    19    17    1
     7    17     1    1
     8     1     2    1
     9     2     3    1
    10     3     4   ar
    11     4     5   ar
    12     5     6   ar
    13     6    10    1
    14    10    11   ar
    15    11    12   ar
    16    12    13   ar
    17    13    14   ar
    18    14    15   ar
    19    15    16    1
    20     6     7   ar
    21     7     8   ar
    22     8     9    1
    23     9     1    1
    24     8     3   ar
    25    15    10   ar
    26    17    18    1
@<TRIPOS>MOLECULE
*****
 24 26 0 0 0
SMALL
GASTEIGER

@<TRIPOS>ATOM
      1 C          63.6630   89.7393   13.2725 C.3     1  UNL1        0.0838
      2 C          64.3728   89.0700   14.4118 C.3     1  UNL1        0.0437
      3 C          64.2263   87.5868   14.2421 C.ar    1  UNL1       -0.0247
      4 C          64.7183   86.4295   15.0597 C.ar    1  UNL1       -0.0045
      5 C          64.4098   85.0250   14.6331 C.ar    1  UNL1       -0.0002
      6 C          63.6093   84.7777   13.3889 C.ar    1  UNL1        0.0034
      7 C          63.1174   85.9350   12.5712 C.ar    1  UNL1       -0.0044
      8 C          63.4258   87.3395   12.9978 C.ar    1  UNL1       -0.0247
      9 C          63.0777   88.6699   12.3986 C.3     1  UNL1        0.0437
     10 C          63.3009   83.3730   12.9623 C.ar    1  UNL1        0.0460
     11 C          62.5325   82.4637   13.8748 C.ar    1  UNL1        0.0054
     12 C          62.2240   81.0591   13.4482 C.ar    1  UNL1        0.0208
     13 C          62.6840   80.5638   12.1091 C.ar    1  UNL1        0.1013
     14 N          63.4525   81.4732   11.1966 N.ar    1  UNL1       -0.2165
     15 C          63.7609   82.8778   11.6232 C.ar    1  UNL1        0.2222
     16 F          64.5293   83.7872   10.7107 F       1  UNL1       -0.1832
     17 N          63.5571   91.2185   13.0467 N.3     1  UNL1       -0.1841
     18 H          62.8484   91.3563   12.3262 H       1  UNL1        0.1484
     19 S          64.7644   92.0007   12.6219 S.O2    1  UNL1        0.0390
     20 O          64.4561   91.6966   11.1858 O.2     1  UNL1       -0.1576
     21 O          65.0726   92.3048   14.0580 O.2     1  UNL1       -0.1576
     22 C          66.6039   92.5205   10.8623 C.3     1  UNL1        0.0270
     23 C          65.9717   92.7829   12.1970 C.3     1  UNL1        0.1457
     24 C          66.5468   93.8276   13.1069 C.3     1  UNL1        0.0270
@<TRIPOS>BOND
     1    22    23    1
     2    23    24    1
     3    23    19    1
     4    19    20    2
     5    19    21    2
     6    19    17    1
     7    17     1    1
     8     1     2    1
     9     2     3    1
    10     3     4   ar
    11     4     5   ar
    12     5     6   ar
    13     6    10    1
    14    10    11   ar
    15    11    12   ar
    16    12    13   ar
    17    13    14   ar
    18    14    15   ar
    19    15    16    1
    20     6     7   ar
    21     7     8   ar
    22     8     9    1
    23     9     1    1
    24     8     3   ar
    25    15    10   ar
    26    17    18    1
