@<TRIPOS>MOLECULE
*****
 43 46 0 0 0
SMALL
GASTEIGER

@<TRIPOS>ATOM
      1 C          66.7369   92.5187   13.4123 C.2     1  UNL1        0.2253
      2 O          67.8028   92.6739   14.4562 O.2     1  UNL1       -0.2749
      3 N          65.5525   91.6367   13.6752 N.am    1  UNL1       -0.2787
      4 C          65.2989   90.8512   14.9277 C.3     1  UNL1        0.1028
      5 C          64.0033   90.1142   14.7583 C.3     1  UNL1        0.1021
      6 C          63.4563   90.4443   13.4011 C.3     1  UNL1        0.0521
      7 C          64.4137   91.3852   12.7318 C.3     1  UNL1        0.0982
      8 C          66.7692   96.8557    8.0795 C.3     1  UNL1        0.0948
      9 C          67.2109   95.4262    8.1853 C.2     1  UNL1        0.2261
     10 O          67.7711   94.7235    6.9843 O.2     1  UNL1       -0.2749
     11 N          67.0924   94.6993    9.4921 N.am    1  UNL1       -0.2795
     12 C          66.5322   95.4020   10.6930 C.3     1  UNL1        0.0939
     13 C          66.4137   94.6751   11.9998 C.3     1  UNL1        0.0306
     14 C          66.8554   93.2456   12.1056 C.3     1  UNL1        0.0801
     15 C          67.4156   92.5429   10.9046 C.3     1  UNL1        0.0306
     16 C          67.5341   93.2698    9.5979 C.3     1  UNL1        0.0939
     17 C          62.1767   89.9247   12.8161 C.ar    1  UNL1       -0.0241
     18 C          61.0429   89.5362   13.7181 C.ar    1  UNL1       -0.0022
     19 C          59.7632   89.0166   13.1332 C.ar    1  UNL1        0.0293
     20 C          59.6172   88.8855   11.6460 C.ar    1  UNL1        0.1398
     21 F          58.3374   88.3659   11.0609 F       1  UNL1       -0.2042
     22 C          60.7509   89.2741   10.7439 C.ar    1  UNL1        0.0251
     23 C          62.0306   89.7937   11.3290 C.ar    1  UNL1       -0.0235
     24 C          63.1643   90.1822   10.4269 C.3     1  UNL1        0.0308
     25 C          63.3666   89.2066   15.7687 C.2     1  UNL1        0.2275
     26 O          62.5036   89.7799   16.8532 O.2     1  UNL1       -0.2748
     27 N          63.5931   87.7257   15.6945 N.am    1  UNL1       -0.2736
     28 C          62.9564   86.8181   16.7048 C.3     1  UNL1        0.1152
     29 C          64.4562   87.1523   14.6099 C.3     1  UNL1        0.1202
     30 C          63.9206   86.0724   13.7172 C.ar    1  UNL1       -0.0024
     31 C          63.1829   86.4339   12.4621 C.ar    1  UNL1        0.0012
     32 C          62.6474   85.3538   11.5696 C.ar    1  UNL1        0.0711
     33 C          62.8494   83.9124   11.9320 C.ar    1  UNL1        0.0077
     34 C          63.5870   83.5509   13.1870 C.ar    1  UNL1        0.0711
     35 C          64.1226   84.6309   14.0797 C.ar    1  UNL1        0.0012
     36 C          61.9097   85.7153   10.3145 C.3     1  UNL1        0.4186
     37 F          61.1721   86.0768    9.0594 F       1  UNL1       -0.1659
     38 F          60.7242   86.1347   11.1320 F       1  UNL1       -0.1659
     39 F          63.0953   85.2959    9.4969 F       1  UNL1       -0.1659
     40 C          63.7891   82.1094   13.5495 C.3     1  UNL1        0.4186
     41 F          63.9912   80.6680   13.9120 F       1  UNL1       -0.1659
     42 F          64.8255   81.9840   12.4724 F       1  UNL1       -0.1659
     43 F          62.7527   82.2349   14.6266 F       1  UNL1       -0.1659
@<TRIPOS>BOND
     1     8     9    1
     2     9    10    2
     3     9    11   am
     4    11    12    1
     5    12    13    1
     6    13    14    1
     7    14     1    1
     8     1     2    2
     9     1     3   am
    10     3     4    1
    11     4     5    1
    12     5    25    1
    13    25    26    2
    14    25    27   am
    15    27    28    1
    16    27    29    1
    17    29    30    1
    18    30    31   ar
    19    31    32   ar
    20    32    36    1
    21    36    37    1
    22    36    38    1
    23    36    39    1
    24    32    33   ar
    25    33    34   ar
    26    34    40    1
    27    40    41    1
    28    40    42    1
    29    40    43    1
    30    34    35   ar
    31     5     6    1
    32     6    17    1
    33    17    18   ar
    34    18    19   ar
    35    19    20   ar
    36    20    21    1
    37    20    22   ar
    38    22    23   ar
    39    23    24    1
    40     6     7    1
    41    14    15    1
    42    15    16    1
    43    16    11    1
    44     7     3    1
    45    35    30   ar
    46    23    17   ar
@<TRIPOS>MOLECULE
*****
 43 46 0 0 0
SMALL
GASTEIGER

@<TRIPOS>ATOM
      1 C          66.7501   92.4965   13.4091 C.2     1  UNL1        0.2253
      2 O          67.8256   92.6430   14.4443 O.2     1  UNL1       -0.2749
      3 N          65.5658   91.6159   13.6776 N.am    1  UNL1       -0.2787
      4 C          65.3213   90.8239   14.9278 C.3     1  UNL1        0.1028
      5 C          64.0224   90.0912   14.7658 C.3     1  UNL1        0.1021
      6 C          63.4641   90.4305   13.4155 C.3     1  UNL1        0.0521
      7 C          64.4180   91.3727   12.7430 C.3     1  UNL1        0.0982
      8 C          66.7204   96.8554    8.0942 C.3     1  UNL1        0.0948
      9 C          67.1847   95.4326    8.1947 C.2     1  UNL1        0.2261
     10 O          67.7577   94.7440    6.9917 O.2     1  UNL1       -0.2749
     11 N          67.0761   94.6986    9.4983 N.am    1  UNL1       -0.2795
     12 C          66.5030   95.3873   10.7014 C.3     1  UNL1        0.0939
     13 C          66.3944   94.6532   12.0050 C.3     1  UNL1        0.0306
     14 C          66.8587   93.2305   12.1055 C.3     1  UNL1        0.0801
     15 C          67.4317   92.5418   10.9025 C.3     1  UNL1        0.0306
     16 C          67.5404   93.2759    9.5989 C.3     1  UNL1        0.0939
     17 C          62.1780   89.9175   12.8390 C.ar    1  UNL1       -0.0241
     18 C          61.0414   89.5532   13.7476 C.ar    1  UNL1       -0.0022
     19 C          59.7551   89.0402   13.1711 C.ar    1  UNL1        0.0293
     20 C          59.6054   88.8915   11.6860 C.ar    1  UNL1        0.1398
     21 F          58.3191   88.3785   11.1095 F       1  UNL1       -0.2042
     22 C          60.7420   89.2557   10.7774 C.ar    1  UNL1        0.0251
     23 C          62.0283   89.7687   11.3540 C.ar    1  UNL1       -0.0235
     24 C          63.1648   90.1329   10.4454 C.3     1  UNL1        0.0308
     25 C          63.3925   89.1795   15.7767 C.2     1  UNL1        0.2275
     26 O          62.5320   89.7477   16.8659 O.2     1  UNL1       -0.2748
     27 N          63.6230   87.6994   15.6982 N.am    1  UNL1       -0.2736
     28 C          62.9930   86.7876   16.7090 C.3     1  UNL1        0.1152
     29 C          64.4835   87.1310   14.6089 C.3     1  UNL1        0.1202
     30 C          63.9476   86.0514   13.7160 C.ar    1  UNL1       -0.0024
     31 C          64.1574   84.6098   14.0732 C.ar    1  UNL1        0.0012
     32 C          63.6215   83.5303   13.1802 C.ar    1  UNL1        0.0711
     33 C          62.8757   83.8923   11.9301 C.ar    1  UNL1        0.0077
     34 C          62.6658   85.3339   11.5730 C.ar    1  UNL1        0.0711
     35 C          63.2018   86.4135   12.4659 C.ar    1  UNL1        0.0012
     36 C          63.8313   82.0886   13.5374 C.3     1  UNL1        0.4186
     37 F          64.0412   80.6469   13.8945 F       1  UNL1       -0.1659
     38 F          64.7882   81.9440   12.3914 F       1  UNL1       -0.1659
     39 F          62.8744   82.2332   14.6834 F       1  UNL1       -0.1659
     40 C          61.9200   85.6961   10.3229 C.3     1  UNL1        0.4186
     41 F          61.1743   86.0583    9.0728 F       1  UNL1       -0.1659
     42 F          63.1071   85.2943    9.4985 F       1  UNL1       -0.1659
     43 F          60.7331   86.0979   11.1473 F       1  UNL1       -0.1659
@<TRIPOS>BOND
     1     8     9    1
     2     9    10    2
     3     9    11   am
     4    11    12    1
     5    12    13    1
     6    13    14    1
     7    14     1    1
     8     1     2    2
     9     1     3   am
    10     3     4    1
    11     4     5    1
    12     5    25    1
    13    25    26    2
    14    25    27   am
    15    27    28    1
    16    27    29    1
    17    29    30    1
    18    30    31   ar
    19    31    32   ar
    20    32    36    1
    21    36    37    1
    22    36    38    1
    23    36    39    1
    24    32    33   ar
    25    33    34   ar
    26    34    40    1
    27    40    41    1
    28    40    42    1
    29    40    43    1
    30    34    35   ar
    31     5     6    1
    32     6    17    1
    33    17    18   ar
    34    18    19   ar
    35    19    20   ar
    36    20    21    1
    37    20    22   ar
    38    22    23   ar
    39    23    24    1
    40     6     7    1
    41    14    15    1
    42    15    16    1
    43    16    11    1
    44     7     3    1
    45    35    30   ar
    46    23    17   ar
