@<TRIPOS>MOLECULE
*****
 23 26 0 0 0
SMALL
GASTEIGER

@<TRIPOS>ATOM
      1 C          64.9237   91.1808   13.2537 C.3     1  UNL1        0.1119
      2 C          63.9454   90.6507   12.2476 C.ar    1  UNL1        0.0006
      3 C          63.0419   89.4535   12.2605 C.ar    1  UNL1        0.0090
      4 C          62.1546   89.1708   11.0845 C.ar    1  UNL1        0.0574
      5 CL         61.2511   87.9735   11.0974 Cl      1  UNL1       -0.0823
      6 C          62.1710   90.0853    9.8957 C.ar    1  UNL1        0.0114
      7 C          63.0746   91.2826    9.8828 C.ar    1  UNL1        0.0021
      8 C          63.9618   91.5653   11.0588 C.ar    1  UNL1        0.0152
      9 C          64.9501   92.6606   11.3300 C.ar    1  UNL1        0.0804
     10 C          65.5711   93.9027   10.7629 C.ar    1  UNL1        0.1177
     11 N          66.5493   94.4327   11.7690 N.ar    1  UNL1       -0.2223
     12 C          66.5330   93.5181   12.9578 C.ar    1  UNL1        0.1788
     13 N          65.5446   92.4229   12.6866 N.ar    1  UNL1       -0.3069
     14 C          65.2277   90.5751   14.5918 C.3     1  UNL1        0.0564
     15 O          63.2494   91.2762   16.1231 O.3     1  UNL1       -0.3844
     16 C          64.1084   90.2049   15.5192 C.3     1  UNL1        0.1127
     17 H          63.5499   92.1447   15.8129 H       1  UNL1        0.2103
     18 C          63.8480   88.7636   15.8428 C.3     1  UNL1        0.0270
     19 C          64.3810   87.6855   14.9464 C.3     1  UNL1        0.0024
     20 C          64.1207   86.2442   15.2700 C.3     1  UNL1        0.0001
     21 C          63.3273   85.8809   16.4900 C.3     1  UNL1        0.0000
     22 C          62.7942   86.9589   17.3865 C.3     1  UNL1        0.0001
     23 C          63.0546   88.4003   17.0629 C.3     1  UNL1        0.0024
@<TRIPOS>BOND
     1    15    16    1
     2    16    14    1
     3    14     1    1
     4     1     2    1
     5     2     3   ar
     6     3     4   ar
     7     4     5    1
     8     4     6   ar
     9     6     7   ar
    10     7     8   ar
    11     8     9    1
    12     9    10   ar
    13    10    11   ar
    14    11    12   ar
    15    12    13   ar
    16    16    18    1
    17    18    19    1
    18    19    20    1
    19    20    21    1
    20    21    22    1
    21    22    23    1
    22    13     1    1
    23    23    18    1
    24     8     2   ar
    25    13     9   ar
    26    15    17    1
@<TRIPOS>MOLECULE
*****
 23 26 0 0 0
SMALL
GASTEIGER

@<TRIPOS>ATOM
      1 C          63.1144   88.5732   12.0678 C.3     1  UNL1        0.1119
      2 C          63.4351   87.3517   12.8774 C.ar    1  UNL1        0.0006
      3 C          63.1730   85.8938   12.6412 C.ar    1  UNL1        0.0090
      4 C          63.6201   84.8783   13.6508 C.ar    1  UNL1        0.0574
      5 CL         63.3580   83.4204   13.4146 Cl      1  UNL1       -0.0823
      6 C          64.3290   85.3209   14.8963 C.ar    1  UNL1        0.0114
      7 C          64.5910   86.7788   15.1325 C.ar    1  UNL1        0.0021
      8 C          64.1441   87.7943   14.1230 C.ar    1  UNL1        0.0152
      9 C          64.2616   89.2891   14.0833 C.ar    1  UNL1        0.0804
     10 C          64.7724   90.4865   14.8286 C.ar    1  UNL1        0.1177
     11 N          64.4517   91.7078   14.0190 N.ar    1  UNL1       -0.2223
     12 C          63.7427   91.2654   12.7734 C.ar    1  UNL1        0.1788
     13 N          63.6252   89.7705   12.8131 N.ar    1  UNL1       -0.3069
     14 C          62.4071   88.5937   10.7452 C.3     1  UNL1        0.0564
     15 O          60.1216   87.5313   11.3761 O.3     1  UNL1       -0.3844
     16 C          61.3111   87.6085   10.4655 C.3     1  UNL1        0.1127
     17 H          60.2181   88.1810   12.0898 H       1  UNL1        0.2103
     18 C          61.4046   86.7006    9.2751 C.3     1  UNL1        0.0270
     19 C          62.6972   86.0081    8.9597 C.3     1  UNL1        0.0024
     20 C          62.7907   85.1001    7.7694 C.3     1  UNL1        0.0001
     21 C          61.5915   84.8847    6.8945 C.3     1  UNL1        0.0000
     22 C          60.2988   85.5772    7.2098 C.3     1  UNL1        0.0001
     23 C          60.2053   86.4852    8.4002 C.3     1  UNL1        0.0024
@<TRIPOS>BOND
     1    15    16    1
     2    16    14    1
     3    14     1    1
     4     1     2    1
     5     2     3   ar
     6     3     4   ar
     7     4     5    1
     8     4     6   ar
     9     6     7   ar
    10     7     8   ar
    11     8     9    1
    12     9    10   ar
    13    10    11   ar
    14    11    12   ar
    15    12    13   ar
    16    16    18    1
    17    18    19    1
    18    19    20    1
    19    20    21    1
    20    21    22    1
    21    22    23    1
    22    13     1    1
    23    23    18    1
    24     8     2   ar
    25    13     9   ar
    26    15    17    1
@<TRIPOS>MOLECULE
*****
 23 26 0 0 0
SMALL
GASTEIGER

@<TRIPOS>ATOM
      1 C          62.2185   88.7228   10.9946 C.3     1  UNL1        0.1119
      2 C          61.3178   88.3688    9.8485 C.ar    1  UNL1        0.0006
      3 C          60.6391   89.2099    8.8084 C.ar    1  UNL1        0.0090
      4 C          59.7793   88.5620    7.7638 C.ar    1  UNL1        0.0574
      5 CL         59.1006   89.4031    6.7238 Cl      1  UNL1       -0.0823
      6 C          59.5985   87.0730    7.7594 C.ar    1  UNL1        0.0114
      7 C          60.2772   86.2318    8.7995 C.ar    1  UNL1        0.0021
      8 C          61.1369   86.8797    9.8441 C.ar    1  UNL1        0.0152
      9 C          61.9257   86.3135   10.9874 C.ar    1  UNL1        0.0804
     10 C          62.3014   85.0432   11.6911 C.ar    1  UNL1        0.1177
     11 N          63.2021   85.3973   12.8372 N.ar    1  UNL1       -0.2223
     12 C          63.3830   86.8863   12.8417 C.ar    1  UNL1        0.1788
     13 N          62.5942   87.4526   11.6984 N.ar    1  UNL1       -0.3069
     14 C          62.6651   90.1045   11.3708 C.3     1  UNL1        0.0564
     15 O          62.1767   90.0388   13.9218 O.3     1  UNL1       -0.3844
     16 C          63.0815   90.4001   12.7812 C.3     1  UNL1        0.1127
     17 H          61.3700   89.6257   13.5762 H       1  UNL1        0.2103
     18 C          64.4027   91.0570   13.0510 C.3     1  UNL1        0.0270
     19 C          64.9640   92.0436   12.0704 C.3     1  UNL1        0.0024
     20 C          66.2852   92.7005   12.3402 C.3     1  UNL1        0.0001
     21 C          67.0452   92.3708   13.5907 C.3     1  UNL1        0.0000
     22 C          66.4840   91.3842   14.5714 C.3     1  UNL1        0.0001
     23 C          65.1627   90.7273   14.3016 C.3     1  UNL1        0.0024
@<TRIPOS>BOND
     1    15    16    1
     2    16    14    1
     3    14     1    1
     4     1     2    1
     5     2     3   ar
     6     3     4   ar
     7     4     5    1
     8     4     6   ar
     9     6     7   ar
    10     7     8   ar
    11     8     9    1
    12     9    10   ar
    13    10    11   ar
    14    11    12   ar
    15    12    13   ar
    16    16    18    1
    17    18    19    1
    18    19    20    1
    19    20    21    1
    20    21    22    1
    21    22    23    1
    22    13     1    1
    23    23    18    1
    24     8     2   ar
    25    13     9   ar
    26    15    17    1
@<TRIPOS>MOLECULE
*****
 23 26 0 0 0
SMALL
GASTEIGER

@<TRIPOS>ATOM
      1 C          63.2186   86.6411   12.6813 C.3     1  UNL1        0.1119
      2 C          63.4929   88.0984   12.9078 C.ar    1  UNL1        0.0006
      3 C          64.2643   88.8209   13.9722 C.ar    1  UNL1        0.0090
      4 C          64.3681   90.3170   13.9383 C.ar    1  UNL1        0.0574
      5 CL         65.1395   91.0395   15.0027 Cl      1  UNL1       -0.0823
      6 C          63.7004   91.0904   12.8401 C.ar    1  UNL1        0.0114
      7 C          62.9290   90.3679   11.7758 C.ar    1  UNL1        0.0021
      8 C          62.8252   88.8718   11.8096 C.ar    1  UNL1        0.0152
      9 C          62.1383   87.8927   10.9044 C.ar    1  UNL1        0.0804
     10 C          61.3012   87.7656    9.6663 C.ar    1  UNL1        0.1177
     11 N          61.0269   86.3083    9.4398 N.ar    1  UNL1       -0.2223
     12 C          61.6946   85.5348   10.5380 C.ar    1  UNL1        0.1788
     13 N          62.3815   86.5140   11.4432 N.ar    1  UNL1       -0.3069
     14 C          63.6974   85.5097   13.5419 C.3     1  UNL1        0.0564
     15 O          61.7805   84.9123   15.1908 O.3     1  UNL1       -0.3844
     16 C          62.7161   84.5151   14.0876 C.3     1  UNL1        0.1127
     17 H          61.9404   85.8380   15.4328 H       1  UNL1        0.2103
     18 C          62.6703   83.1233   13.5301 C.3     1  UNL1        0.0270
     19 C          63.2454   82.8392   12.1742 C.3     1  UNL1        0.0024
     20 C          63.1996   81.4474   11.6167 C.3     1  UNL1        0.0001
     21 C          62.5786   80.3397   12.4151 C.3     1  UNL1        0.0000
     22 C          62.0034   80.6238   13.7710 C.3     1  UNL1        0.0001
     23 C          62.0492   82.0156   14.3285 C.3     1  UNL1        0.0024
@<TRIPOS>BOND
     1    15    16    1
     2    16    14    1
     3    14     1    1
     4     1     2    1
     5     2     3   ar
     6     3     4   ar
     7     4     5    1
     8     4     6   ar
     9     6     7   ar
    10     7     8   ar
    11     8     9    1
    12     9    10   ar
    13    10    11   ar
    14    11    12   ar
    15    12    13   ar
    16    16    18    1
    17    18    19    1
    18    19    20    1
    19    20    21    1
    20    21    22    1
    21    22    23    1
    22    13     1    1
    23    23    18    1
    24     8     2   ar
    25    13     9   ar
    26    15    17    1
@<TRIPOS>MOLECULE
*****
 23 26 0 0 0
SMALL
GASTEIGER

@<TRIPOS>ATOM
      1 C          61.4927   87.0977   10.8538 C.3     1  UNL1        0.1119
      2 C          62.1918   88.3718   11.2254 C.ar    1  UNL1        0.0006
      3 C          63.1394   88.7090   12.3382 C.ar    1  UNL1        0.0090
      4 C          63.6889   90.0995   12.4599 C.ar    1  UNL1        0.0574
      5 CL         64.6366   90.4367   13.5726 Cl      1  UNL1       -0.0823
      6 C          63.2907   91.1526   11.4688 C.ar    1  UNL1        0.0114
      7 C          62.3431   90.8154   10.3560 C.ar    1  UNL1        0.0021
      8 C          61.7935   89.4250   10.2343 C.ar    1  UNL1        0.0152
      9 C          60.8484   88.8019    9.2502 C.ar    1  UNL1        0.0804
     10 C          60.0183   89.0677    8.0295 C.ar    1  UNL1        0.1177
     11 N          59.3192   87.7936    7.6580 N.ar    1  UNL1       -0.2223
     12 C          59.7174   86.7404    8.6490 C.ar    1  UNL1        0.1788
     13 N          60.6625   87.3635    9.6331 N.ar    1  UNL1       -0.3069
     14 C          61.6042   85.7878   11.5762 C.3     1  UNL1        0.0564
     15 O          63.1309   84.8469    9.6963 O.3     1  UNL1       -0.3844
     16 C          62.5374   84.7287   11.0688 C.3     1  UNL1        0.1127
     17 H          62.8109   85.6596    9.2745 H       1  UNL1        0.2103
     18 C          62.8770   83.5513   11.9340 C.3     1  UNL1        0.0270
     19 C          63.3781   83.7670   13.3312 C.3     1  UNL1        0.0024
     20 C          63.7177   82.5896   14.1963 C.3     1  UNL1        0.0001
     21 C          63.5562   81.1966   13.6642 C.3     1  UNL1        0.0000
     22 C          63.0550   80.9808   12.2669 C.3     1  UNL1        0.0001
     23 C          62.7154   82.1582   11.4018 C.3     1  UNL1        0.0024
@<TRIPOS>BOND
     1    15    16    1
     2    16    14    1
     3    14     1    1
     4     1     2    1
     5     2     3   ar
     6     3     4   ar
     7     4     5    1
     8     4     6   ar
     9     6     7   ar
    10     7     8   ar
    11     8     9    1
    12     9    10   ar
    13    10    11   ar
    14    11    12   ar
    15    12    13   ar
    16    16    18    1
    17    18    19    1
    18    19    20    1
    19    20    21    1
    20    21    22    1
    21    22    23    1
    22    13     1    1
    23    23    18    1
    24     8     2   ar
    25    13     9   ar
    26    15    17    1
@<TRIPOS>MOLECULE
*****
 23 26 0 0 0
SMALL
GASTEIGER

@<TRIPOS>ATOM
      1 C          63.7850   87.0004   13.6675 C.3     1  UNL1        0.1119
      2 C          63.0144   87.1756   12.3925 C.ar    1  UNL1        0.0006
      3 C          62.6587   88.3947   11.5942 C.ar    1  UNL1        0.0090
      4 C          61.8602   88.2578   10.3317 C.ar    1  UNL1        0.0574
      5 CL         61.5045   89.4769    9.5334 Cl      1  UNL1       -0.0823
      6 C          61.4176   86.9019    9.8676 C.ar    1  UNL1        0.0114
      7 C          61.7733   85.6828   10.6659 C.ar    1  UNL1        0.0021
      8 C          62.5717   85.8196   11.9284 C.ar    1  UNL1        0.0152
      9 C          63.0686   84.8064   12.9165 C.ar    1  UNL1        0.0804
     10 C          63.1021   83.3421   13.2403 C.ar    1  UNL1        0.1177
     11 N          63.8727   83.1669   14.5153 N.ar    1  UNL1       -0.2223
     12 C          64.3154   84.5229   14.9794 C.ar    1  UNL1        0.1788
     13 N          63.8185   85.5361   13.9913 N.ar    1  UNL1       -0.3069
     14 C          64.4119   88.0969   14.4766 C.3     1  UNL1        0.0564
     15 O          62.4621   89.7657   14.8804 O.3     1  UNL1       -0.3844
     16 C          63.8589   89.4895   14.4083 C.3     1  UNL1        0.1127
     17 H          62.0587   88.9421   15.1964 H       1  UNL1        0.2103
     18 C          64.7025   90.6059   13.8680 C.3     1  UNL1        0.0270
     19 C          65.9505   91.0198   14.5898 C.3     1  UNL1        0.0024
     20 C          66.7941   92.1362   14.0495 C.3     1  UNL1        0.0001
     21 C          66.3897   92.8387   12.7873 C.3     1  UNL1        0.0000
     22 C          65.1417   92.4247   12.0655 C.3     1  UNL1        0.0001
     23 C          64.2980   91.3083   12.6058 C.3     1  UNL1        0.0024
@<TRIPOS>BOND
     1    15    16    1
     2    16    14    1
     3    14     1    1
     4     1     2    1
     5     2     3   ar
     6     3     4   ar
     7     4     5    1
     8     4     6   ar
     9     6     7   ar
    10     7     8   ar
    11     8     9    1
    12     9    10   ar
    13    10    11   ar
    14    11    12   ar
    15    12    13   ar
    16    16    18    1
    17    18    19    1
    18    19    20    1
    19    20    21    1
    20    21    22    1
    21    22    23    1
    22    13     1    1
    23    23    18    1
    24     8     2   ar
    25    13     9   ar
    26    15    17    1
@<TRIPOS>MOLECULE
*****
 23 26 0 0 0
SMALL
GASTEIGER

@<TRIPOS>ATOM
      1 C          62.6959   86.5882   11.5847 C.3     1  UNL1        0.1119
      2 C          61.7279   87.0887   10.5538 C.ar    1  UNL1        0.0006
      3 C          60.9500   86.3845    9.4819 C.ar    1  UNL1        0.0090
      4 C          60.0396   87.1647    8.5804 C.ar    1  UNL1        0.0574
      5 CL         59.2618   86.4605    7.5085 Cl      1  UNL1       -0.0823
      6 C          59.9072   88.6490    8.7511 C.ar    1  UNL1        0.0114
      7 C          60.6850   89.3533    9.8230 C.ar    1  UNL1        0.0021
      8 C          61.5954   88.5731   10.7244 C.ar    1  UNL1        0.0152
      9 C          62.4814   88.9900   11.8606 C.ar    1  UNL1        0.0804
     10 C          62.9471   90.1651   12.6682 C.ar    1  UNL1        0.1177
     11 N          63.9151   89.6647   13.6991 N.ar    1  UNL1       -0.2223
     12 C          64.0476   88.1803   13.5285 C.ar    1  UNL1        0.1788
     13 N          63.1615   87.7633   12.3923 N.ar    1  UNL1       -0.3069
     14 C          63.1231   85.1630   11.7745 C.3     1  UNL1        0.0564
     15 O          62.6301   85.2157   14.3249 O.3     1  UNL1       -0.3844
     16 C          62.7919   84.4441   13.0487 C.3     1  UNL1        0.1127
     17 H          62.7713   86.1597   14.1521 H       1  UNL1        0.2103
     18 C          62.6226   82.9537   13.0468 C.3     1  UNL1        0.0270
     19 C          63.0213   82.1552   11.8412 C.3     1  UNL1        0.0024
     20 C          62.8520   80.6647   11.8393 C.3     1  UNL1        0.0001
     21 C          62.2840   79.9729   13.0429 C.3     1  UNL1        0.0000
     22 C          61.8854   80.7714   14.2486 C.3     1  UNL1        0.0001
     23 C          62.0547   82.2618   14.2505 C.3     1  UNL1        0.0024
@<TRIPOS>BOND
     1    15    16    1
     2    16    14    1
     3    14     1    1
     4     1     2    1
     5     2     3   ar
     6     3     4   ar
     7     4     5    1
     8     4     6   ar
     9     6     7   ar
    10     7     8   ar
    11     8     9    1
    12     9    10   ar
    13    10    11   ar
    14    11    12   ar
    15    12    13   ar
    16    16    18    1
    17    18    19    1
    18    19    20    1
    19    20    21    1
    20    21    22    1
    21    22    23    1
    22    13     1    1
    23    23    18    1
    24     8     2   ar
    25    13     9   ar
    26    15    17    1
@<TRIPOS>MOLECULE
*****
 23 26 0 0 0
SMALL
GASTEIGER

@<TRIPOS>ATOM
      1 C          63.9259   87.6874   13.9800 C.3     1  UNL1        0.1119
      2 C          63.2452   87.4939   12.6573 C.ar    1  UNL1        0.0006
      3 C          62.7172   86.2698   11.9698 C.ar    1  UNL1        0.0090
      4 C          62.0717   86.3870   10.6208 C.ar    1  UNL1        0.0574
      5 CL         61.5437   85.1628    9.9332 Cl      1  UNL1       -0.0823
      6 C          61.9544   87.7281    9.9595 C.ar    1  UNL1        0.0114
      7 C          62.4824   88.9522   10.6470 C.ar    1  UNL1        0.0021
      8 C          63.1279   88.8352   11.9959 C.ar    1  UNL1        0.0152
      9 C          63.7359   89.8575   12.9098 C.ar    1  UNL1        0.0804
     10 C          64.0392   91.3182   13.0658 C.ar    1  UNL1        0.1177
     11 N          64.7198   91.5116   14.3884 N.ar    1  UNL1       -0.2223
     12 C          64.8372   90.1704   15.0498 C.ar    1  UNL1        0.1788
     13 N          64.2291   89.1481   14.1360 N.ar    1  UNL1       -0.3069
     14 C          64.2469   86.6094   14.9724 C.3     1  UNL1        0.0564
     15 O          66.4288   85.2699   14.5304 O.3     1  UNL1       -0.3844
     16 C          64.9311   85.3534   14.5203 C.3     1  UNL1        0.1127
     17 H          66.7971   86.1067   14.8544 H       1  UNL1        0.2103
     18 C          64.1177   84.1809   14.0581 C.3     1  UNL1        0.0270
     19 C          64.4358   83.5155   12.7520 C.3     1  UNL1        0.0024
     20 C          63.6224   82.3430   12.2899 C.3     1  UNL1        0.0001
     21 C          62.4908   81.8359   13.1338 C.3     1  UNL1        0.0000
     22 C          62.1726   82.5013   14.4400 C.3     1  UNL1        0.0001
     23 C          62.9860   83.6738   14.9021 C.3     1  UNL1        0.0024
@<TRIPOS>BOND
     1    15    16    1
     2    16    14    1
     3    14     1    1
     4     1     2    1
     5     2     3   ar
     6     3     4   ar
     7     4     5    1
     8     4     6   ar
     9     6     7   ar
    10     7     8   ar
    11     8     9    1
    12     9    10   ar
    13    10    11   ar
    14    11    12   ar
    15    12    13   ar
    16    16    18    1
    17    18    19    1
    18    19    20    1
    19    20    21    1
    20    21    22    1
    21    22    23    1
    22    13     1    1
    23    23    18    1
    24     8     2   ar
    25    13     9   ar
    26    15    17    1
@<TRIPOS>MOLECULE
*****
 23 26 0 0 0
SMALL
GASTEIGER

@<TRIPOS>ATOM
      1 C          62.7328   85.6064   11.9075 C.3     1  UNL1        0.1119
      2 C          62.9769   84.2159   12.4146 C.ar    1  UNL1        0.0006
      3 C          62.6088   82.8688   11.8670 C.ar    1  UNL1        0.0090
      4 C          62.9963   81.6253   12.6113 C.ar    1  UNL1        0.0574
      5 CL         62.6282   80.2782   12.0637 Cl      1  UNL1       -0.0823
      6 C          63.7517   81.7291   13.9030 C.ar    1  UNL1        0.0114
      7 C          64.1197   83.0762   14.4506 C.ar    1  UNL1        0.0021
      8 C          63.7323   84.3196   13.7064 C.ar    1  UNL1        0.0152
      9 C          63.9552   85.7741   13.9976 C.ar    1  UNL1        0.0804
     10 C          64.5598   86.7371   14.9759 C.ar    1  UNL1        0.1177
     11 N          64.3157   88.1275   14.4688 N.ar    1  UNL1       -0.2223
     12 C          63.5603   88.0238   13.1771 C.ar    1  UNL1        0.1788
     13 N          63.3374   86.5693   12.8858 N.ar    1  UNL1       -0.3069
     14 C          62.0109   85.9699   10.6439 C.3     1  UNL1        0.0564
     15 O          60.2968   87.3751   11.9994 O.3     1  UNL1       -0.3844
     16 C          60.8803   86.9548   10.6830 C.3     1  UNL1        0.1127
     17 H          60.7617   86.9203   12.7191 H       1  UNL1        0.2103
     18 C          60.3330   87.5195    9.4056 C.3     1  UNL1        0.0270
     19 C          59.6744   86.6145    8.4070 C.3     1  UNL1        0.0024
     20 C          59.1271   87.1791    7.1296 C.3     1  UNL1        0.0001
     21 C          59.2385   88.6487    6.8508 C.3     1  UNL1        0.0000
     22 C          59.8971   89.5538    7.8494 C.3     1  UNL1        0.0001
     23 C          60.4444   88.9892    9.1268 C.3     1  UNL1        0.0024
@<TRIPOS>BOND
     1    15    16    1
     2    16    14    1
     3    14     1    1
     4     1     2    1
     5     2     3   ar
     6     3     4   ar
     7     4     5    1
     8     4     6   ar
     9     6     7   ar
    10     7     8   ar
    11     8     9    1
    12     9    10   ar
    13    10    11   ar
    14    11    12   ar
    15    12    13   ar
    16    16    18    1
    17    18    19    1
    18    19    20    1
    19    20    21    1
    20    21    22    1
    21    22    23    1
    22    13     1    1
    23    23    18    1
    24     8     2   ar
    25    13     9   ar
    26    15    17    1
