@<TRIPOS>MOLECULE
*****
 31 33 0 0 0
SMALL
GASTEIGER

@<TRIPOS>ATOM
      1 C          63.6432   89.1755   15.3174 C.2     1  UNL1        0.2534
      2 O          62.3807   89.3635   16.1054 O.2     1  UNL1       -0.2695
      3 N          64.2715   87.8170   15.2205 N.am    1  UNL1       -0.2965
      4 H          65.1001   87.6936   14.7033 H       1  UNL1        0.1501
      5 C          66.3028   94.7441   10.4655 C.3     1  UNL1        0.0537
      6 C          66.0525   93.9528   11.7149 C.ar    1  UNL1        0.0771
      7 N          66.6500   94.3976   13.0168 N.ar    1  UNL1       -0.1522
      8 N          66.3997   93.6063   14.2663 N.ar    1  UNL1       -0.1416
      9 C          65.5518   92.3701   14.2138 C.ar    1  UNL1        0.1333
     10 S          65.1334   91.3942   15.2734 S.2     1  UNL1       -0.0604
     11 C          64.2772   90.3462   14.6263 C.ar    1  UNL1        0.0971
     12 C          64.1665   90.6743   13.1668 C.ar    1  UNL1        0.0538
     13 N          63.4023   89.8895   12.1422 N.pl3   1  UNL1       -0.3564
     14 C          64.9543   91.9252   12.9119 C.ar    1  UNL1        0.0363
     15 C          65.2046   92.7165   11.6625 C.ar    1  UNL1       -0.0033
     16 C          64.6070   92.2716   10.3605 C.3     1  UNL1        0.0324
     17 H          62.9136   89.0772   12.4081 H       1  UNL1        0.1424
     18 H          63.3893   90.1866   11.2037 H       1  UNL1        0.1424
     19 C          63.6374   86.6464   15.9116 C.3     1  UNL1        0.1166
     20 C          63.4426   85.3551   15.1736 C.ar    1  UNL1       -0.0025
     21 C          62.5653   84.2852   15.7528 C.ar    1  UNL1       -0.0013
     22 C          62.3705   82.9939   15.0147 C.ar    1  UNL1        0.0183
     23 C          63.0531   82.7726   13.6975 C.ar    1  UNL1        0.1117
     24 C          63.9304   83.8426   13.1183 C.ar    1  UNL1        0.0183
     25 C          64.1252   85.1338   13.8563 C.ar    1  UNL1       -0.0013
     26 S          62.8583   81.4813   12.9594 S.O2    1  UNL1        0.0699
     27 O          62.7571   82.2354   11.6667 O.2     1  UNL1       -0.1634
     28 O          62.9594   80.7272   14.2522 O.2     1  UNL1       -0.1634
     29 C          62.6635   80.1901   12.2215 C.3     1  UNL1        0.4496
     30 F          62.2990   78.9442   12.9732 F       1  UNL1       -0.1722
     31 F          62.8331   80.1446   10.7317 F       1  UNL1       -0.1722
@<TRIPOS>BOND
     1     5     6    1
     2     6     7   ar
     3     7     8   ar
     4     8     9   ar
     5     9    10   ar
     6    10    11   ar
     7    11     1    1
     8     1     2    2
     9     1     3   am
    10     3    19    1
    11    19    20    1
    12    20    21   ar
    13    21    22   ar
    14    22    23   ar
    15    23    26    1
    16    26    27    2
    17    26    28    2
    18    26    29    1
    19    29    30    1
    20    29    31    1
    21    23    24   ar
    22    24    25   ar
    23    11    12   ar
    24    12    13    1
    25    12    14   ar
    26    14    15   ar
    27    15    16    1
    28    15     6   ar
    29    14     9   ar
    30    25    20   ar
    31     3     4    1
    32    13    17    1
    33    13    18    1
@<TRIPOS>MOLECULE
*****
 31 33 0 0 0
SMALL
GASTEIGER

@<TRIPOS>ATOM
      1 C          63.7365   89.2772   14.7328 C.2     1  UNL1        0.2534
      2 O          62.6668   89.5439   15.7500 O.2     1  UNL1       -0.2695
      3 N          64.3761   87.9227   14.6545 N.am    1  UNL1       -0.2965
      4 H          65.0781   87.7477   13.9869 H       1  UNL1        0.1501
      5 C          66.7359   95.5053   11.0128 C.3     1  UNL1        0.0537
      6 C          65.9684   94.2433   11.2744 C.ar    1  UNL1        0.0771
      7 N          65.1785   93.6036   10.1714 N.ar    1  UNL1       -0.1522
      8 N          64.4110   92.3417   10.4329 N.ar    1  UNL1       -0.1416
      9 C          64.4335   91.7194   11.7975 C.ar    1  UNL1        0.1333
     10 S          63.7804   90.4871   12.3496 S.2     1  UNL1       -0.0604
     11 C          64.1666   90.3651   13.7939 C.ar    1  UNL1        0.0971
     12 C          65.0585   91.5221   14.1345 C.ar    1  UNL1        0.0538
     13 N          65.6769   91.7943   15.4737 N.pl3   1  UNL1       -0.3564
     14 C          65.2234   92.3591   12.9006 C.ar    1  UNL1        0.0363
     15 C          65.9909   93.6210   12.6390 C.ar    1  UNL1       -0.0033
     16 C          66.7808   94.2607   13.7421 C.3     1  UNL1        0.0324
     17 H          65.5086   91.1832   16.2270 H       1  UNL1        0.1424
     18 H          66.2511   92.5841   15.5993 H       1  UNL1        0.1424
     19 C          63.9459   86.8348   15.5934 C.3     1  UNL1        0.1166
     20 C          63.6443   85.4638   15.0649 C.ar    1  UNL1       -0.0025
     21 C          64.3491   84.9602   13.8403 C.ar    1  UNL1       -0.0013
     22 C          64.0474   83.5892   13.3118 C.ar    1  UNL1        0.0183
     23 C          63.0409   82.7218   14.0079 C.ar    1  UNL1        0.1117
     24 C          62.3361   83.2254   15.2325 C.ar    1  UNL1        0.0183
     25 C          62.6378   84.5964   15.7610 C.ar    1  UNL1       -0.0013
     26 S          62.7392   81.3507   13.4794 S.O2    1  UNL1        0.0699
     27 O          61.4836   81.3110   14.2990 O.2     1  UNL1       -0.1634
     28 O          63.9949   81.3904   12.6597 O.2     1  UNL1       -0.1634
     29 C          62.4376   79.9798   12.9509 C.3     1  UNL1        0.4496
     30 F          61.8657   78.9340   13.8614 F       1  UNL1       -0.1722
     31 F          62.7080   79.6545   11.5117 F       1  UNL1       -0.1722
@<TRIPOS>BOND
     1     5     6    1
     2     6     7   ar
     3     7     8   ar
     4     8     9   ar
     5     9    10   ar
     6    10    11   ar
     7    11     1    1
     8     1     2    2
     9     1     3   am
    10     3    19    1
    11    19    20    1
    12    20    21   ar
    13    21    22   ar
    14    22    23   ar
    15    23    26    1
    16    26    27    2
    17    26    28    2
    18    26    29    1
    19    29    30    1
    20    29    31    1
    21    23    24   ar
    22    24    25   ar
    23    11    12   ar
    24    12    13    1
    25    12    14   ar
    26    14    15   ar
    27    15    16    1
    28    15     6   ar
    29    14     9   ar
    30    25    20   ar
    31     3     4    1
    32    13    17    1
    33    13    18    1
@<TRIPOS>MOLECULE
*****
 31 33 0 0 0
SMALL
GASTEIGER

@<TRIPOS>ATOM
      1 C          62.2170   90.2184   12.0643 C.2     1  UNL1        0.2534
      2 O          62.4227   90.1809   10.5789 O.2     1  UNL1       -0.2695
      3 N          60.9568   89.6656   12.6611 N.am    1  UNL1       -0.2965
      4 H          60.8217   89.6903   13.6359 H       1  UNL1        0.1501
      5 C          68.3169   93.8371   15.4287 C.3     1  UNL1        0.0537
      6 C          67.0621   93.0329   15.2592 C.ar    1  UNL1        0.0771
      7 N          66.3790   92.4470   16.4592 N.ar    1  UNL1       -0.1522
      8 N          65.1242   91.6427   16.2897 N.ar    1  UNL1       -0.1416
      9 C          64.5526   91.4244   14.9202 C.ar    1  UNL1        0.1333
     10 S          63.3386   90.6819   14.4459 S.2     1  UNL1       -0.0604
     11 C          63.2715   90.8089   12.9528 C.ar    1  UNL1        0.0971
     12 C          64.4440   91.6299   12.5043 C.ar    1  UNL1        0.0538
     13 N          64.7678   92.0047   11.0884 N.pl3   1  UNL1       -0.3564
     14 C          65.2357   92.0103   13.7202 C.ar    1  UNL1        0.0363
     15 C          66.4905   92.8146   13.8897 C.ar    1  UNL1       -0.0033
     16 C          67.1736   93.4005   12.6897 C.3     1  UNL1        0.0324
     17 H          64.1841   91.7056   10.3542 H       1  UNL1        0.1424
     18 H          65.5641   92.5498   10.8934 H       1  UNL1        0.1424
     19 C          59.9023   89.0753   11.7725 C.3     1  UNL1        0.1166
     20 C          60.2907   88.1348   10.6703 C.ar    1  UNL1       -0.0025
     21 C          61.1362   86.9333   10.9728 C.ar    1  UNL1       -0.0013
     22 C          61.5246   85.9929    9.8707 C.ar    1  UNL1        0.0183
     23 C          61.0674   86.2539    8.4661 C.ar    1  UNL1        0.1117
     24 C          60.2219   87.4554    8.1636 C.ar    1  UNL1        0.0183
     25 C          59.8336   88.3958    9.2658 C.ar    1  UNL1       -0.0013
     26 S          61.4558   85.3134    7.3639 S.O2    1  UNL1        0.0699
     27 O          60.0487   85.3403    6.8451 O.2     1  UNL1       -0.1634
     28 O          62.8630   85.2865    7.8827 O.2     1  UNL1       -0.1634
     29 C          61.8442   84.3730    6.2618 C.3     1  UNL1        0.4496
     30 F          60.8565   83.3654    5.7527 F       1  UNL1       -0.1722
     31 F          63.2205   84.4400    5.6688 F       1  UNL1       -0.1722
@<TRIPOS>BOND
     1     5     6    1
     2     6     7   ar
     3     7     8   ar
     4     8     9   ar
     5     9    10   ar
     6    10    11   ar
     7    11     1    1
     8     1     2    2
     9     1     3   am
    10     3    19    1
    11    19    20    1
    12    20    21   ar
    13    21    22   ar
    14    22    23   ar
    15    23    26    1
    16    26    27    2
    17    26    28    2
    18    26    29    1
    19    29    30    1
    20    29    31    1
    21    23    24   ar
    22    24    25   ar
    23    11    12   ar
    24    12    13    1
    25    12    14   ar
    26    14    15   ar
    27    15    16    1
    28    15     6   ar
    29    14     9   ar
    30    25    20   ar
    31     3     4    1
    32    13    17    1
    33    13    18    1
@<TRIPOS>MOLECULE
*****
 31 33 0 0 0
SMALL
GASTEIGER

@<TRIPOS>ATOM
      1 C          62.6458   90.5421   11.5909 C.2     1  UNL1        0.2534
      2 O          62.4561   90.6995   10.1113 O.2     1  UNL1       -0.2695
      3 N          61.6689   89.7319   12.3903 N.am    1  UNL1       -0.2965
      4 H          61.7934   89.6286   13.3614 H       1  UNL1        0.1501
      5 C          68.0647   93.5303   16.4210 C.3     1  UNL1        0.0537
      6 C          67.3416   93.1476   15.1638 C.ar    1  UNL1        0.0771
      7 N          67.9164   93.5126   13.8273 N.ar    1  UNL1       -0.1522
      8 N          67.1933   93.1299   12.5700 N.ar    1  UNL1       -0.1416
      9 C          65.8955   92.3820   12.6493 C.ar    1  UNL1        0.1333
     10 S          64.9635   91.8740   11.5895 S.2     1  UNL1       -0.0604
     11 C          63.8126   91.1949   12.2710 C.ar    1  UNL1        0.0971
     12 C          64.0334   91.2832   13.7520 C.ar    1  UNL1        0.0538
     13 N          63.1263   90.7343   14.8130 N.pl3   1  UNL1       -0.3564
     14 C          65.3208   92.0169   13.9858 C.ar    1  UNL1        0.0363
     15 C          66.0438   92.3997   15.2430 C.ar    1  UNL1       -0.0033
     16 C          65.4690   92.0346   16.5796 C.3     1  UNL1        0.0324
     17 H          62.2988   90.2654   14.5588 H       1  UNL1        0.1424
     18 H          63.3583   90.8429   15.7636 H       1  UNL1        0.1424
     19 C          60.5022   89.0792   11.7102 C.3     1  UNL1        0.1166
     20 C          60.7337   88.1119   10.5873 C.ar    1  UNL1       -0.0025
     21 C          59.9184   88.2107    9.3321 C.ar    1  UNL1       -0.0013
     22 C          60.1499   87.2435    8.2093 C.ar    1  UNL1        0.0183
     23 C          61.1968   86.1774    8.3417 C.ar    1  UNL1        0.1117
     24 C          62.0121   86.0785    9.5968 C.ar    1  UNL1        0.0183
     25 C          61.7805   87.0458   10.7196 C.ar    1  UNL1       -0.0013
     26 S          61.4283   85.2101    7.2188 S.O2    1  UNL1        0.0699
     27 O          62.8835   85.1432    7.5763 O.2     1  UNL1       -0.1634
     28 O          59.9730   85.2769    6.8612 O.2     1  UNL1       -0.1634
     29 C          61.6598   84.2428    6.0959 C.3     1  UNL1        0.4496
     30 F          62.9181   84.3240    5.2835 F       1  UNL1       -0.1722
     31 F          60.6329   83.1944    5.7855 F       1  UNL1       -0.1722
@<TRIPOS>BOND
     1     5     6    1
     2     6     7   ar
     3     7     8   ar
     4     8     9   ar
     5     9    10   ar
     6    10    11   ar
     7    11     1    1
     8     1     2    2
     9     1     3   am
    10     3    19    1
    11    19    20    1
    12    20    21   ar
    13    21    22   ar
    14    22    23   ar
    15    23    26    1
    16    26    27    2
    17    26    28    2
    18    26    29    1
    19    29    30    1
    20    29    31    1
    21    23    24   ar
    22    24    25   ar
    23    11    12   ar
    24    12    13    1
    25    12    14   ar
    26    14    15   ar
    27    15    16    1
    28    15     6   ar
    29    14     9   ar
    30    25    20   ar
    31     3     4    1
    32    13    17    1
    33    13    18    1
@<TRIPOS>MOLECULE
*****
 31 33 0 0 0
SMALL
GASTEIGER

@<TRIPOS>ATOM
      1 C          59.8084   88.4225    8.1577 C.2     1  UNL1        0.2534
      2 O          58.7059   87.4803    7.7746 O.2     1  UNL1       -0.2695
      3 N          60.0493   89.6632    7.3499 N.am    1  UNL1       -0.2965
      4 H          60.7729   90.2816    7.6013 H       1  UNL1        0.1501
      5 C          64.5279   88.3516   14.4303 C.3     1  UNL1        0.0537
      6 C          63.6351   87.8788   13.3216 C.ar    1  UNL1        0.0771
      7 N          63.3417   86.4159   13.1671 N.ar    1  UNL1       -0.1522
      8 N          62.4488   85.9430   12.0584 N.ar    1  UNL1       -0.1416
      9 C          61.8493   86.9330   11.1043 C.ar    1  UNL1        0.1333
     10 S          60.9392   86.7649    9.9238 S.2     1  UNL1       -0.0604
     11 C          60.6701   88.1240    9.3488 C.ar    1  UNL1        0.0971
     12 C          61.4139   89.1320   10.1738 C.ar    1  UNL1        0.0538
     13 N          61.4267   90.6155    9.9527 N.pl3   1  UNL1       -0.3564
     14 C          62.1427   88.3959   11.2588 C.ar    1  UNL1        0.0363
     15 C          63.0356   88.8687   12.3674 C.ar    1  UNL1       -0.0033
     16 C          63.3289   90.3317   12.5219 C.3     1  UNL1        0.0324
     17 H          60.9135   91.0068    9.2092 H       1  UNL1        0.1424
     18 H          61.9482   91.1979   10.5511 H       1  UNL1        0.1424
     19 C          59.1876   89.9617    6.1589 C.3     1  UNL1        0.1166
     20 C          59.6823   90.8893    5.0889 C.ar    1  UNL1       -0.0025
     21 C          61.1290   90.8739    4.6930 C.ar    1  UNL1       -0.0013
     22 C          61.6236   91.8016    3.6230 C.ar    1  UNL1        0.0183
     23 C          60.6715   92.7445    2.9490 C.ar    1  UNL1        0.1117
     24 C          59.2248   92.7599    3.3449 C.ar    1  UNL1        0.0183
     25 C          58.7302   91.8323    4.4149 C.ar    1  UNL1       -0.0013
     26 S          61.1661   93.6722    1.8789 S.O2    1  UNL1        0.0699
     27 O          62.2493   92.6943    1.5319 O.2     1  UNL1       -0.1634
     28 O          60.0829   94.6501    2.2260 O.2     1  UNL1       -0.1634
     29 C          61.6607   94.5998    0.8090 C.3     1  UNL1        0.4496
     30 F          63.1308   94.8589    0.6617 F       1  UNL1       -0.1722
     31 F          60.6852   95.2684   -0.1138 F       1  UNL1       -0.1722
@<TRIPOS>BOND
     1     5     6    1
     2     6     7   ar
     3     7     8   ar
     4     8     9   ar
     5     9    10   ar
     6    10    11   ar
     7    11     1    1
     8     1     2    2
     9     1     3   am
    10     3    19    1
    11    19    20    1
    12    20    21   ar
    13    21    22   ar
    14    22    23   ar
    15    23    26    1
    16    26    27    2
    17    26    28    2
    18    26    29    1
    19    29    30    1
    20    29    31    1
    21    23    24   ar
    22    24    25   ar
    23    11    12   ar
    24    12    13    1
    25    12    14   ar
    26    14    15   ar
    27    15    16    1
    28    15     6   ar
    29    14     9   ar
    30    25    20   ar
    31     3     4    1
    32    13    17    1
    33    13    18    1
@<TRIPOS>MOLECULE
*****
 31 33 0 0 0
SMALL
GASTEIGER

@<TRIPOS>ATOM
      1 C          62.6859   87.5379   12.5267 C.2     1  UNL1        0.2534
      2 O          61.6536   88.3868   11.8457 O.2     1  UNL1       -0.2695
      3 N          63.6182   88.1506   13.5293 N.am    1  UNL1       -0.2965
      4 H          64.2958   87.5935   13.9762 H       1  UNL1        0.1501
      5 C          62.8418   79.6928   12.2916 C.3     1  UNL1        0.0537
      6 C          62.9340   81.1269   11.8615 C.ar    1  UNL1        0.0771
      7 N          63.2914   81.4633   10.4441 N.ar    1  UNL1       -0.1522
      8 N          63.3836   82.8973   10.0140 N.ar    1  UNL1       -0.1416
      9 C          63.1183   83.9950   11.0012 C.ar    1  UNL1        0.1333
     10 S          63.1337   85.4891   10.8692 S.2     1  UNL1       -0.0604
     11 C          62.7858   86.0761   12.2050 C.ar    1  UNL1        0.0971
     12 C          62.5554   84.9448   13.1627 C.ar    1  UNL1        0.0538
     13 N          62.1846   85.0766   14.6101 N.pl3   1  UNL1       -0.3564
     14 C          62.7609   83.6586   12.4186 C.ar    1  UNL1        0.0363
     15 C          62.6687   82.2245   12.8488 C.ar    1  UNL1       -0.0033
     16 C          62.3113   81.8882   14.2662 C.3     1  UNL1        0.0324
     17 H          62.0716   85.9690   15.0101 H       1  UNL1        0.1424
     18 H          62.0541   84.2705   15.1602 H       1  UNL1        0.1424
     19 C          63.5182   89.6123   13.8509 C.3     1  UNL1        0.1166
     20 C          64.2839   90.6133   13.0373 C.ar    1  UNL1       -0.0025
     21 C          65.5425   91.2190   13.5841 C.ar    1  UNL1       -0.0013
     22 C          66.3080   92.2200   12.7705 C.ar    1  UNL1        0.0183
     23 C          65.8149   92.6153   11.4102 C.ar    1  UNL1        0.1117
     24 C          64.5563   92.0097   10.8634 C.ar    1  UNL1        0.0183
     25 C          63.7908   91.0087   11.6770 C.ar    1  UNL1       -0.0013
     26 S          66.5805   93.6164   10.5966 S.O2    1  UNL1        0.0699
     27 O          65.3804   94.5159   10.5739 O.2     1  UNL1       -0.1634
     28 O          67.7807   92.7169   10.6193 O.2     1  UNL1       -0.1634
     29 C          67.3461   94.6174    9.7831 C.3     1  UNL1        0.4496
     30 F          66.7503   95.9637    9.4960 F       1  UNL1       -0.1722
     31 F          68.7076   94.2721    9.2566 F       1  UNL1       -0.1722
@<TRIPOS>BOND
     1     5     6    1
     2     6     7   ar
     3     7     8   ar
     4     8     9   ar
     5     9    10   ar
     6    10    11   ar
     7    11     1    1
     8     1     2    2
     9     1     3   am
    10     3    19    1
    11    19    20    1
    12    20    21   ar
    13    21    22   ar
    14    22    23   ar
    15    23    26    1
    16    26    27    2
    17    26    28    2
    18    26    29    1
    19    29    30    1
    20    29    31    1
    21    23    24   ar
    22    24    25   ar
    23    11    12   ar
    24    12    13    1
    25    12    14   ar
    26    14    15   ar
    27    15    16    1
    28    15     6   ar
    29    14     9   ar
    30    25    20   ar
    31     3     4    1
    32    13    17    1
    33    13    18    1
@<TRIPOS>MOLECULE
*****
 31 33 0 0 0
SMALL
GASTEIGER

@<TRIPOS>ATOM
      1 C          59.7988   88.8000    7.8797 C.2     1  UNL1        0.2534
      2 O          58.6557   87.9224    7.4634 O.2     1  UNL1       -0.2695
      3 N          60.1045   90.0496    7.1084 N.am    1  UNL1       -0.2965
      4 H          60.8547   90.6256    7.3817 H       1  UNL1        0.1501
      5 C          63.9464   85.4376   13.6343 C.3     1  UNL1        0.0537
      6 C          63.2979   86.4854   12.7790 C.ar    1  UNL1        0.0771
      7 N          63.4512   87.9368   13.1255 N.ar    1  UNL1       -0.1522
      8 N          62.8028   88.9846   12.2702 N.ar    1  UNL1       -0.1416
      9 C          62.0011   88.5812   11.0684 C.ar    1  UNL1        0.1333
     10 S          61.2522   89.3834   10.0459 S.2     1  UNL1       -0.0604
     11 C          60.6360   88.4279    9.0674 C.ar    1  UNL1        0.0971
     12 C          61.0041   87.0351    9.4852 C.ar    1  UNL1        0.0538
     13 N          60.5996   85.7697    8.7886 N.pl3   1  UNL1       -0.3564
     14 C          61.8478   87.1298   10.7219 C.ar    1  UNL1        0.0363
     15 C          62.4962   86.0820   11.5772 C.ar    1  UNL1       -0.0033
     16 C          62.3429   84.6306   11.2306 C.3     1  UNL1        0.0324
     17 H          60.0412   85.8105    7.9789 H       1  UNL1        0.1424
     18 H          60.8925   84.8985    9.1412 H       1  UNL1        0.1424
     19 C          59.2673   90.4216    5.9207 C.3     1  UNL1        0.1166
     20 C          59.8681   91.2151    4.7984 C.ar    1  UNL1       -0.0025
     21 C          61.3228   91.0619    4.4665 C.ar    1  UNL1       -0.0013
     22 C          61.9236   91.8554    3.3443 C.ar    1  UNL1        0.0183
     23 C          61.0696   92.8020    2.5540 C.ar    1  UNL1        0.1117
     24 C          59.6148   92.9551    2.8859 C.ar    1  UNL1        0.0183
     25 C          59.0141   92.1617    4.0081 C.ar    1  UNL1       -0.0013
     26 S          61.6704   93.5955    1.4317 S.O2    1  UNL1        0.0699
     27 O          62.9891   92.9176    1.6583 O.2     1  UNL1       -0.1634
     28 O          60.3516   94.2734    1.2050 O.2     1  UNL1       -0.1634
     29 C          62.2712   94.3889    0.3094 C.3     1  UNL1        0.4496
     30 F          63.5558   93.9408   -0.3222 F       1  UNL1       -0.1722
     31 F          61.5873   95.6306   -0.1813 F       1  UNL1       -0.1722
@<TRIPOS>BOND
     1     5     6    1
     2     6     7   ar
     3     7     8   ar
     4     8     9   ar
     5     9    10   ar
     6    10    11   ar
     7    11     1    1
     8     1     2    2
     9     1     3   am
    10     3    19    1
    11    19    20    1
    12    20    21   ar
    13    21    22   ar
    14    22    23   ar
    15    23    26    1
    16    26    27    2
    17    26    28    2
    18    26    29    1
    19    29    30    1
    20    29    31    1
    21    23    24   ar
    22    24    25   ar
    23    11    12   ar
    24    12    13    1
    25    12    14   ar
    26    14    15   ar
    27    15    16    1
    28    15     6   ar
    29    14     9   ar
    30    25    20   ar
    31     3     4    1
    32    13    17    1
    33    13    18    1
@<TRIPOS>MOLECULE
*****
 31 33 0 0 0
SMALL
GASTEIGER

@<TRIPOS>ATOM
      1 C          59.1439   91.6116    4.5883 C.2     1  UNL1        0.2534
      2 O          57.7134   92.0023    4.8145 O.2     1  UNL1       -0.2695
      3 N          59.7663   90.5294    5.4198 N.am    1  UNL1       -0.2965
      4 H          60.7052   90.2730    5.2713 H       1  UNL1        0.1501
      5 C          64.5139   94.4072   -0.4089 C.3     1  UNL1        0.0537
      6 C          63.2045   94.1868    0.2889 C.ar    1  UNL1        0.0771
      7 N          61.9854   94.9440   -0.1473 N.ar    1  UNL1       -0.1522
      8 N          60.6760   94.7236    0.5506 N.ar    1  UNL1       -0.1416
      9 C          60.5858   93.7461    1.6847 C.ar    1  UNL1        0.1333
     10 S          59.4406   93.3223    2.5559 S.2     1  UNL1       -0.0604
     11 C          59.9520   92.3032    3.5305 C.ar    1  UNL1        0.0971
     12 C          61.4132   92.0972    3.2618 C.ar    1  UNL1        0.0538
     13 N          62.3231   91.1634    4.0035 N.pl3   1  UNL1       -0.3564
     14 C          61.8050   92.9890    2.1209 C.ar    1  UNL1        0.0363
     15 C          63.1143   93.2093    1.4231 C.ar    1  UNL1       -0.0033
     16 C          64.3335   92.4521    1.8594 C.3     1  UNL1        0.0324
     17 H          61.9707   90.6160    4.7421 H       1  UNL1        0.1424
     18 H          63.2726   91.0978    3.7518 H       1  UNL1        0.1424
     19 C          58.9582   89.8379    6.4775 C.3     1  UNL1        0.1166
     20 C          59.6355   88.9460    7.4755 C.ar    1  UNL1       -0.0025
     21 C          60.4400   89.5442    8.5912 C.ar    1  UNL1       -0.0013
     22 C          61.1173   88.6523    9.5892 C.ar    1  UNL1        0.0183
     23 C          60.9900   87.1624    9.4714 C.ar    1  UNL1        0.1117
     24 C          60.1855   86.5643    8.3556 C.ar    1  UNL1        0.0183
     25 C          59.5082   87.4561    7.3577 C.ar    1  UNL1       -0.0013
     26 S          61.6673   86.2706   10.4694 S.O2    1  UNL1        0.0699
     27 O          60.8964   86.9248   11.5773 O.2     1  UNL1       -0.1634
     28 O          62.4383   85.6162    9.3614 O.2     1  UNL1       -0.1634
     29 C          62.3446   85.3787   11.4673 C.3     1  UNL1        0.4496
     30 F          63.1600   85.9765   12.5754 F       1  UNL1       -0.1722
     31 F          62.2064   83.8891   11.3573 F       1  UNL1       -0.1722
@<TRIPOS>BOND
     1     5     6    1
     2     6     7   ar
     3     7     8   ar
     4     8     9   ar
     5     9    10   ar
     6    10    11   ar
     7    11     1    1
     8     1     2    2
     9     1     3   am
    10     3    19    1
    11    19    20    1
    12    20    21   ar
    13    21    22   ar
    14    22    23   ar
    15    23    26    1
    16    26    27    2
    17    26    28    2
    18    26    29    1
    19    29    30    1
    20    29    31    1
    21    23    24   ar
    22    24    25   ar
    23    11    12   ar
    24    12    13    1
    25    12    14   ar
    26    14    15   ar
    27    15    16    1
    28    15     6   ar
    29    14     9   ar
    30    25    20   ar
    31     3     4    1
    32    13    17    1
    33    13    18    1
@<TRIPOS>MOLECULE
*****
 31 33 0 0 0
SMALL
GASTEIGER

@<TRIPOS>ATOM
      1 C          59.7597   91.5932    4.5823 C.2     1  UNL1        0.2534
      2 O          58.4712   92.2909    4.9030 O.2     1  UNL1       -0.2695
      3 N          60.1884   90.4024    5.3874 N.am    1  UNL1       -0.2965
      4 H          61.0341   89.9444    5.1770 H       1  UNL1        0.1501
      5 C          62.9485   94.5045   -1.9736 C.3     1  UNL1        0.0537
      6 C          62.8181   93.8883   -0.6123 C.ar    1  UNL1        0.0771
      7 N          64.0467   93.5099    0.1605 N.ar    1  UNL1       -0.1522
      8 N          63.9163   92.8937    1.5219 N.ar    1  UNL1       -0.1416
      9 C          62.5573   92.6559    2.1105 C.ar    1  UNL1        0.1333
     10 S          62.1191   92.0700    3.4199 S.2     1  UNL1       -0.0604
     11 C          60.6197   92.0863    3.4565 C.ar    1  UNL1        0.0971
     12 C          60.1311   92.6822    2.1695 C.ar    1  UNL1        0.0538
     13 N          58.6969   92.8897    1.7824 N.pl3   1  UNL1       -0.3564
     14 C          61.3287   93.0342    1.3377 C.ar    1  UNL1        0.0363
     15 C          61.4591   93.6504   -0.0237 C.ar    1  UNL1       -0.0033
     16 C          60.2303   94.0288   -0.7965 C.3     1  UNL1        0.0324
     17 H          57.9771   92.6248    2.3997 H       1  UNL1        0.1424
     18 H          58.4752   93.2908    0.9111 H       1  UNL1        0.1424
     19 C          59.3284   89.9094    6.5132 C.3     1  UNL1        0.1166
     20 C          59.9011   88.9820    7.5439 C.ar    1  UNL1       -0.0025
     21 C          59.7350   87.4989    7.3933 C.ar    1  UNL1       -0.0013
     22 C          60.3077   86.5717    8.4239 C.ar    1  UNL1        0.0183
     23 C          61.0465   87.1276    9.6051 C.ar    1  UNL1        0.1117
     24 C          61.2126   88.6107    9.7556 C.ar    1  UNL1        0.0183
     25 C          60.6399   89.5379    8.7250 C.ar    1  UNL1       -0.0013
     26 S          61.6192   86.2003   10.6358 S.O2    1  UNL1        0.0699
     27 O          60.8787   86.9384   11.7114 O.2     1  UNL1       -0.1634
     28 O          62.3597   85.4621    9.5602 O.2     1  UNL1       -0.1634
     29 C          62.1919   85.2730   11.6663 C.3     1  UNL1        0.4496
     30 F          62.0232   83.7900   11.5173 F       1  UNL1       -0.1722
     31 F          62.9333   85.8287   12.8460 F       1  UNL1       -0.1722
@<TRIPOS>BOND
     1     5     6    1
     2     6     7   ar
     3     7     8   ar
     4     8     9   ar
     5     9    10   ar
     6    10    11   ar
     7    11     1    1
     8     1     2    2
     9     1     3   am
    10     3    19    1
    11    19    20    1
    12    20    21   ar
    13    21    22   ar
    14    22    23   ar
    15    23    26    1
    16    26    27    2
    17    26    28    2
    18    26    29    1
    19    29    30    1
    20    29    31    1
    21    23    24   ar
    22    24    25   ar
    23    11    12   ar
    24    12    13    1
    25    12    14   ar
    26    14    15   ar
    27    15    16    1
    28    15     6   ar
    29    14     9   ar
    30    25    20   ar
    31     3     4    1
    32    13    17    1
    33    13    18    1
