@<TRIPOS>MOLECULE
*****
 42 45 0 0 0
SMALL
GASTEIGER

@<TRIPOS>ATOM
      1 N          63.7440   88.5412   12.9555 N.am    1  UNL1       -0.2927
      2 C          63.8765   87.6732   14.1716 C.2     1  UNL1        0.2508
      3 O          63.8991   88.2936   15.5371 O.2     1  UNL1       -0.2700
      4 H          63.7293   88.1340   12.0593 H       1  UNL1        0.1502
      5 C          63.9865   86.1847   14.0223 C.ar    1  UNL1        0.1068
      6 C          64.8699   85.4013   14.9475 C.ar    1  UNL1        0.0108
      7 C          64.9799   83.9129   14.7982 C.ar    1  UNL1        0.0210
      8 C          64.2065   83.2077   13.7237 C.ar    1  UNL1        0.1021
      9 N          63.3231   83.9911   12.7985 N.ar    1  UNL1       -0.2097
     10 C          63.2131   85.4795   12.9478 C.ar    1  UNL1        0.2340
     11 O          62.3298   86.2629   12.0225 O.3     1  UNL1       -0.4351
     12 C          62.2117   85.8638   10.5815 C.ar    1  UNL1        0.1576
     13 C          63.1971   84.9021    9.9864 C.ar    1  UNL1        0.0384
     14 C          63.0790   84.5030    8.5452 C.ar    1  UNL1        0.0070
     15 C          61.9755   85.0656    7.6992 C.ar    1  UNL1        0.0725
     16 C          60.9900   86.0272    8.2943 C.ar    1  UNL1        0.0183
     17 C          61.1081   86.4263    9.7354 C.ar    1  UNL1        0.0921
     18 CL         60.1227   87.3880   10.3305 Cl      1  UNL1       -0.0791
     19 C          61.8574   84.6664    6.2582 C.3     1  UNL1        0.4186
     20 F          61.7393   84.2673    4.8170 F       1  UNL1       -0.1659
     21 F          60.3625   84.7342    6.3619 F       1  UNL1       -0.1659
     22 F          63.3522   84.5987    6.1545 F       1  UNL1       -0.1659
     23 C          63.6341   90.0298   13.1049 C.3     1  UNL1        0.1789
     24 C          69.1429   93.3733   15.4972 C.3     1  UNL1        0.0897
     25 N          67.8302   92.6977   15.2319 N.3     1  UNL1       -0.2686
     26 C          66.7755   92.6635   16.2978 C.3     1  UNL1        0.0939
     27 C          65.4627   91.9879   16.0326 C.3     1  UNL1        0.1108
     28 N          65.2048   91.3466   14.7013 N.am    1  UNL1       -0.2753
     29 C          63.8920   90.6710   14.4361 C.2     1  UNL1        0.2462
     30 O          62.8373   90.6368   15.5020 O.2     1  UNL1       -0.2730
     31 C          66.2595   91.3809   13.6354 C.3     1  UNL1        0.1108
     32 C          67.5722   92.0565   13.9007 C.3     1  UNL1        0.0939
     33 C          63.2661   90.8769   11.9230 C.3     1  UNL1        0.1715
     34 O          64.3374   91.3998   11.0124 O.3     1  UNL1       -0.3467
     35 C          64.6823   92.8596   11.0210 C.3     1  UNL1        0.1688
     36 C          65.9726   93.3290   10.4171 C.ar    1  UNL1        0.0112
     37 C          67.1102   92.3678   10.2376 C.ar    1  UNL1        0.0189
     38 C          68.4005   92.8372    9.6337 C.ar    1  UNL1        0.0996
     39 N          68.5533   94.2677    9.2092 N.ar    1  UNL1       -0.2325
     40 C          67.4158   95.2289    9.3887 C.ar    1  UNL1        0.1381
     41 CL         67.5687   96.6595    8.9642 Cl      1  UNL1       -0.0613
     42 C          66.1254   94.7596    9.9926 C.ar    1  UNL1        0.0290
@<TRIPOS>BOND
     1    24    25    1
     2    25    26    1
     3    26    27    1
     4    27    28    1
     5    28    29   am
     6    29    30    2
     7    29    23    1
     8    23    33    1
     9    33    34    1
    10    34    35    1
    11    35    36    1
    12    36    37   ar
    13    37    38   ar
    14    38    39   ar
    15    39    40   ar
    16    40    41    1
    17    40    42   ar
    18    23     1    1
    19     1     2   am
    20     2     3    2
    21     2     5    1
    22     5     6   ar
    23     6     7   ar
    24     7     8   ar
    25     8     9   ar
    26     9    10   ar
    27    10    11    1
    28    11    12    1
    29    12    13   ar
    30    13    14   ar
    31    14    15   ar
    32    15    19    1
    33    19    20    1
    34    19    21    1
    35    19    22    1
    36    15    16   ar
    37    16    17   ar
    38    17    18    1
    39    28    31    1
    40    31    32    1
    41    32    25    1
    42    42    36   ar
    43    10     5   ar
    44    17    12   ar
    45     1     4    1
@<TRIPOS>MOLECULE
*****
 42 45 0 0 0
SMALL
GASTEIGER

@<TRIPOS>ATOM
      1 N          63.0322   89.2115   11.1196 N.am    1  UNL1       -0.2927
      2 C          61.5646   88.9021   11.1263 C.2     1  UNL1        0.2508
      3 O          60.6964   89.4088   12.2396 O.2     1  UNL1       -0.2700
      4 H          63.6021   88.8789   10.3888 H       1  UNL1        0.1502
      5 C          60.9650   88.0859   10.0197 C.ar    1  UNL1        0.1068
      6 C          59.7279   88.5653    9.3198 C.ar    1  UNL1        0.0108
      7 C          59.1283   87.7492    8.2133 C.ar    1  UNL1        0.0210
      8 C          59.7658   86.4538    7.8067 C.ar    1  UNL1        0.1021
      9 N          61.0029   85.9744    8.5066 N.ar    1  UNL1       -0.2097
     10 C          61.6025   86.7905    9.6131 C.ar    1  UNL1        0.2340
     11 O          62.8395   86.3111   10.3130 O.3     1  UNL1       -0.4351
     12 C          62.8217   85.0116   11.0619 C.ar    1  UNL1        0.1576
     13 C          62.3302   84.9689   12.4784 C.ar    1  UNL1        0.0384
     14 C          62.3124   83.6693   13.2273 C.ar    1  UNL1        0.0070
     15 C          62.7860   82.4124   12.5596 C.ar    1  UNL1        0.0725
     16 C          63.2775   82.4551   11.1430 C.ar    1  UNL1        0.0183
     17 C          63.2953   83.7546   10.3942 C.ar    1  UNL1        0.0921
     18 CL         63.7868   83.7973    8.9776 Cl      1  UNL1       -0.0791
     19 C          62.7681   81.1129   13.3084 C.3     1  UNL1        0.4186
     20 F          62.7503   79.8133   14.0573 F       1  UNL1       -0.1659
     21 F          61.2683   81.1345   13.3102 F       1  UNL1       -0.1659
     22 F          64.2680   81.0913   13.3067 F       1  UNL1       -0.1659
     23 C          63.6318   90.0276   12.2262 C.3     1  UNL1        0.1789
     24 C          68.2487   93.8288   15.6152 C.3     1  UNL1        0.0897
     25 N          67.2317   93.2200   14.6959 N.3     1  UNL1       -0.2686
     26 C          66.7638   93.9769   13.4885 C.3     1  UNL1        0.0939
     27 C          65.7469   93.3681   12.5691 C.3     1  UNL1        0.1108
     28 N          65.1978   92.0023   12.8573 N.am    1  UNL1       -0.2753
     29 C          64.1809   91.3934   11.9380 C.2     1  UNL1        0.2462
     30 O          63.7130   92.1504   10.7305 O.2     1  UNL1       -0.2730
     31 C          65.6657   91.2453   14.0648 C.3     1  UNL1        0.1108
     32 C          66.6827   91.8542   14.9841 C.3     1  UNL1        0.0939
     33 C          63.6823   89.4779   13.6209 C.3     1  UNL1        0.1715
     34 O          62.9066   90.1444   14.7183 O.3     1  UNL1       -0.3467
     35 C          62.9842   89.6152   16.1197 C.3     1  UNL1        0.1688
     36 C          63.2084   88.1513   16.3572 C.ar    1  UNL1        0.0112
     37 C          62.5803   87.4789   17.5420 C.ar    1  UNL1        0.0189
     38 C          62.8044   86.0149   17.7795 C.ar    1  UNL1        0.0996
     39 N          63.6566   85.2232   16.8324 N.ar    1  UNL1       -0.2325
     40 C          64.2847   85.8955   15.6478 C.ar    1  UNL1        0.1381
     41 CL         65.1369   85.1039   14.7007 Cl      1  UNL1       -0.0613
     42 C          64.0606   87.3596   15.4102 C.ar    1  UNL1        0.0290
@<TRIPOS>BOND
     1    24    25    1
     2    25    26    1
     3    26    27    1
     4    27    28    1
     5    28    29   am
     6    29    30    2
     7    29    23    1
     8    23    33    1
     9    33    34    1
    10    34    35    1
    11    35    36    1
    12    36    37   ar
    13    37    38   ar
    14    38    39   ar
    15    39    40   ar
    16    40    41    1
    17    40    42   ar
    18    23     1    1
    19     1     2   am
    20     2     3    2
    21     2     5    1
    22     5     6   ar
    23     6     7   ar
    24     7     8   ar
    25     8     9   ar
    26     9    10   ar
    27    10    11    1
    28    11    12    1
    29    12    13   ar
    30    13    14   ar
    31    14    15   ar
    32    15    19    1
    33    19    20    1
    34    19    21    1
    35    19    22    1
    36    15    16   ar
    37    16    17   ar
    38    17    18    1
    39    28    31    1
    40    31    32    1
    41    32    25    1
    42    42    36   ar
    43    10     5   ar
    44    17    12   ar
    45     1     4    1
@<TRIPOS>MOLECULE
*****
 42 45 0 0 0
SMALL
GASTEIGER

@<TRIPOS>ATOM
      1 N          63.0704   89.6428   13.8889 N.am    1  UNL1       -0.2927
      2 C          64.0481   88.8949   14.7461 C.2     1  UNL1        0.2508
      3 O          65.5146   89.1939   14.6468 O.2     1  UNL1       -0.2700
      4 H          62.1079   89.4466   13.9540 H       1  UNL1        0.1502
      5 C          63.5592   87.8479   15.7026 C.ar    1  UNL1        0.1068
      6 C          63.0817   88.2440   17.0683 C.ar    1  UNL1        0.0108
      7 C          62.5929   87.1970   18.0247 C.ar    1  UNL1        0.0210
      8 C          62.5814   85.7540   17.6155 C.ar    1  UNL1        0.1021
      9 N          63.0589   85.3579   16.2498 N.ar    1  UNL1       -0.2097
     10 C          63.5478   86.4049   15.2933 C.ar    1  UNL1        0.2340
     11 O          64.0252   86.0088   13.9276 O.3     1  UNL1       -0.4351
     12 C          63.7429   84.6316   13.4046 C.ar    1  UNL1        0.1576
     13 C          64.5033   83.4551   13.9411 C.ar    1  UNL1        0.0384
     14 C          64.2209   82.0779   13.4180 C.ar    1  UNL1        0.0070
     15 C          63.1783   81.8771   12.3585 C.ar    1  UNL1        0.0725
     16 C          62.4179   83.0536   11.8220 C.ar    1  UNL1        0.0183
     17 C          62.7002   84.4308   12.3451 C.ar    1  UNL1        0.0921
     18 CL         61.9399   85.6073   11.8086 Cl      1  UNL1       -0.0791
     19 C          62.8960   80.4999   11.8355 C.3     1  UNL1        0.4186
     20 F          62.6137   79.1227   11.3125 F       1  UNL1       -0.1659
     21 F          63.0713   80.9973   10.4313 F       1  UNL1       -0.1659
     22 F          62.7207   80.0026   13.2397 F       1  UNL1       -0.1659
     23 C          63.5593   90.6899   12.9324 C.3     1  UNL1        0.1789
     24 C          67.5421   95.1086    9.4883 C.3     1  UNL1        0.0897
     25 N          66.7695   94.2796   10.4711 N.3     1  UNL1       -0.2686
     26 C          66.8895   94.5533   11.9410 C.3     1  UNL1        0.0939
     27 C          66.1170   93.7243   12.9238 C.3     1  UNL1        0.1108
     28 N          65.2244   92.6216   12.4367 N.am    1  UNL1       -0.2753
     29 C          64.4519   91.7926   13.4195 C.2     1  UNL1        0.2462
     30 O          64.5719   92.0663   14.8894 O.2     1  UNL1       -0.2730
     31 C          65.1044   92.3479   10.9668 C.3     1  UNL1        0.1108
     32 C          65.8770   93.1769    9.9840 C.3     1  UNL1        0.0939
     33 C          63.1556   90.6341   11.4888 C.3     1  UNL1        0.1715
     34 O          62.7115   89.3353   10.8839 O.3     1  UNL1       -0.3467
     35 C          61.3763   89.2410   10.2067 C.3     1  UNL1        0.1688
     36 C          61.0670   88.0731    9.3178 C.ar    1  UNL1        0.0112
     37 C          59.7004   87.9297    8.7161 C.ar    1  UNL1        0.0189
     38 C          59.3911   86.7618    7.8272 C.ar    1  UNL1        0.0996
     39 N          60.4482   85.7371    7.5400 N.ar    1  UNL1       -0.2325
     40 C          61.8147   85.8804    8.1417 C.ar    1  UNL1        0.1381
     41 CL         62.8719   84.8558    7.8545 Cl      1  UNL1       -0.0613
     42 C          62.1242   87.0484    9.0306 C.ar    1  UNL1        0.0290
@<TRIPOS>BOND
     1    24    25    1
     2    25    26    1
     3    26    27    1
     4    27    28    1
     5    28    29   am
     6    29    30    2
     7    29    23    1
     8    23    33    1
     9    33    34    1
    10    34    35    1
    11    35    36    1
    12    36    37   ar
    13    37    38   ar
    14    38    39   ar
    15    39    40   ar
    16    40    41    1
    17    40    42   ar
    18    23     1    1
    19     1     2   am
    20     2     3    2
    21     2     5    1
    22     5     6   ar
    23     6     7   ar
    24     7     8   ar
    25     8     9   ar
    26     9    10   ar
    27    10    11    1
    28    11    12    1
    29    12    13   ar
    30    13    14   ar
    31    14    15   ar
    32    15    19    1
    33    19    20    1
    34    19    21    1
    35    19    22    1
    36    15    16   ar
    37    16    17   ar
    38    17    18    1
    39    28    31    1
    40    31    32    1
    41    32    25    1
    42    42    36   ar
    43    10     5   ar
    44    17    12   ar
    45     1     4    1
@<TRIPOS>MOLECULE
*****
 42 45 0 0 0
SMALL
GASTEIGER

@<TRIPOS>ATOM
      1 N          65.4163   90.3256   14.5482 N.am    1  UNL1       -0.2927
      2 C          65.8185   91.6067   15.2166 C.2     1  UNL1        0.2508
      3 O          64.7937   92.4292   15.9400 O.2     1  UNL1       -0.2700
      4 H          66.0889   89.7858   14.0734 H       1  UNL1        0.1502
      5 C          67.2456   92.0655   15.1616 C.ar    1  UNL1        0.1068
      6 C          67.9559   92.4594   16.4227 C.ar    1  UNL1        0.0108
      7 C          69.3829   92.9182   16.3677 C.ar    1  UNL1        0.0210
      8 C          70.0997   92.9830   15.0517 C.ar    1  UNL1        0.1021
      9 N          69.3894   92.5892   13.7906 N.ar    1  UNL1       -0.2097
     10 C          67.9624   92.1304   13.8455 C.ar    1  UNL1        0.2340
     11 O          67.2521   91.7365   12.5844 O.3     1  UNL1       -0.4351
     12 C          66.9905   92.7604   11.5199 C.ar    1  UNL1        0.1576
     13 C          65.9488   93.8178   11.7361 C.ar    1  UNL1        0.0384
     14 C          65.6872   94.8417   10.6715 C.ar    1  UNL1        0.0070
     15 C          66.4673   94.8081    9.3908 C.ar    1  UNL1        0.0725
     16 C          67.5090   93.7507    9.1746 C.ar    1  UNL1        0.0183
     17 C          67.7706   92.7268   10.2391 C.ar    1  UNL1        0.0921
     18 CL         68.8123   91.6694   10.0229 Cl      1  UNL1       -0.0791
     19 C          66.2057   95.8319    8.3263 C.3     1  UNL1        0.4186
     20 F          65.9440   96.8559    7.2617 F       1  UNL1       -0.1659
     21 F          66.8274   94.9277    7.3037 F       1  UNL1       -0.1659
     22 F          65.5839   96.7362    9.3488 F       1  UNL1       -0.1659
     23 C          63.9892   89.8668   14.6032 C.3     1  UNL1        0.1789
     24 C          63.9070   83.0088   15.0623 C.3     1  UNL1        0.0897
     25 N          63.8138   84.4971   15.2242 N.3     1  UNL1       -0.2686
     26 C          63.2658   85.0807   16.4926 C.3     1  UNL1        0.0939
     27 C          63.1727   86.5691   16.6545 C.3     1  UNL1        0.1108
     28 N          63.6275   87.4738   15.5479 N.am    1  UNL1       -0.2753
     29 C          63.5343   88.9621   15.7098 C.2     1  UNL1        0.2462
     30 O          62.9863   89.5457   16.9782 O.2     1  UNL1       -0.2730
     31 C          64.1755   86.8901   14.2794 C.3     1  UNL1        0.1108
     32 C          64.2687   85.4018   14.1176 C.3     1  UNL1        0.0939
     33 C          63.0169   90.3128   13.5515 C.3     1  UNL1        0.1715
     34 O          62.3324   89.2981   12.6844 O.3     1  UNL1       -0.3467
     35 C          62.5880   89.2801   11.2064 C.3     1  UNL1        0.1688
     36 C          61.8304   88.3311   10.3258 C.ar    1  UNL1        0.0112
     37 C          62.0398   86.8520   10.4620 C.ar    1  UNL1        0.0189
     38 C          61.2823   85.9030    9.5814 C.ar    1  UNL1        0.0996
     39 N          60.3154   86.4331    8.5645 N.ar    1  UNL1       -0.2325
     40 C          60.1059   87.9121    8.4282 C.ar    1  UNL1        0.1381
     41 CL         59.1390   88.4421    7.4114 Cl      1  UNL1       -0.0613
     42 C          60.8635   88.8612    9.3089 C.ar    1  UNL1        0.0290
@<TRIPOS>BOND
     1    24    25    1
     2    25    26    1
     3    26    27    1
     4    27    28    1
     5    28    29   am
     6    29    30    2
     7    29    23    1
     8    23    33    1
     9    33    34    1
    10    34    35    1
    11    35    36    1
    12    36    37   ar
    13    37    38   ar
    14    38    39   ar
    15    39    40   ar
    16    40    41    1
    17    40    42   ar
    18    23     1    1
    19     1     2   am
    20     2     3    2
    21     2     5    1
    22     5     6   ar
    23     6     7   ar
    24     7     8   ar
    25     8     9   ar
    26     9    10   ar
    27    10    11    1
    28    11    12    1
    29    12    13   ar
    30    13    14   ar
    31    14    15   ar
    32    15    19    1
    33    19    20    1
    34    19    21    1
    35    19    22    1
    36    15    16   ar
    37    16    17   ar
    38    17    18    1
    39    28    31    1
    40    31    32    1
    41    32    25    1
    42    42    36   ar
    43    10     5   ar
    44    17    12   ar
    45     1     4    1
@<TRIPOS>MOLECULE
*****
 42 45 0 0 0
SMALL
GASTEIGER

@<TRIPOS>ATOM
      1 N          63.6051   89.5812   12.0041 N.am    1  UNL1       -0.2927
      2 C          62.1236   89.3479   11.9790 C.2     1  UNL1        0.2508
      3 O          61.2536   89.9347   13.0507 O.2     1  UNL1       -0.2700
      4 H          64.1761   89.1960   11.3007 H       1  UNL1        0.1502
      5 C          61.5120   88.5276   10.8820 C.ar    1  UNL1        0.1068
      6 C          60.5183   89.1489    9.9458 C.ar    1  UNL1        0.0108
      7 C          59.9067   88.3287    8.8489 C.ar    1  UNL1        0.0210
      8 C          60.2889   86.8872    8.6882 C.ar    1  UNL1        0.1021
      9 N          61.2826   86.2659    9.6244 N.ar    1  UNL1       -0.2097
     10 C          61.8942   87.0860   10.7213 C.ar    1  UNL1        0.2340
     11 O          62.8879   86.4647   11.6575 O.3     1  UNL1       -0.4351
     12 C          62.7718   85.0137   12.0193 C.ar    1  UNL1        0.1576
     13 C          62.2492   84.6165   13.3681 C.ar    1  UNL1        0.0384
     14 C          62.1331   83.1654   13.7299 C.ar    1  UNL1        0.0070
     15 C          62.5397   82.1115   12.7430 C.ar    1  UNL1        0.0725
     16 C          63.0623   82.5087   11.3943 C.ar    1  UNL1        0.0183
     17 C          63.1783   83.9597   11.0324 C.ar    1  UNL1        0.0921
     18 CL         63.7010   84.3568    9.6837 Cl      1  UNL1       -0.0791
     19 C          62.4236   80.6605   13.1049 C.3     1  UNL1        0.4186
     20 F          62.3075   79.2094   13.4668 F       1  UNL1       -0.1659
     21 F          62.7934   80.2810   11.7016 F       1  UNL1       -0.1659
     22 F          62.0538   81.0400   14.5081 F       1  UNL1       -0.1659
     23 C          64.2166   90.4015   13.1010 C.3     1  UNL1        0.1789
     24 C          63.4509   84.8879   17.1339 C.3     1  UNL1        0.0897
     25 N          63.5146   86.2348   16.4768 N.3     1  UNL1       -0.2686
     26 C          63.0673   87.4559   17.2244 C.3     1  UNL1        0.0939
     27 C          63.1310   88.8028   16.5673 C.3     1  UNL1        0.1108
     28 N          63.6420   88.9287   15.1627 N.am    1  UNL1       -0.2753
     29 C          63.7057   90.2756   14.5057 C.2     1  UNL1        0.2462
     30 O          63.2584   91.4967   15.2532 O.2     1  UNL1       -0.2730
     31 C          64.0893   87.7076   14.4151 C.3     1  UNL1        0.1108
     32 C          64.0256   86.3607   15.0722 C.3     1  UNL1        0.0939
     33 C          65.3392   91.3476   12.7933 C.3     1  UNL1        0.1715
     34 O          65.1014   92.8284   12.8226 O.3     1  UNL1       -0.3467
     35 C          66.2395   93.7757   12.5831 C.3     1  UNL1        0.1688
     36 C          66.7270   94.0244   11.1865 C.ar    1  UNL1        0.0112
     37 C          66.4156   95.3232   10.5036 C.ar    1  UNL1        0.0189
     38 C          66.9031   95.5719    9.1070 C.ar    1  UNL1        0.0996
     39 N          67.7020   94.5219    8.3933 N.ar    1  UNL1       -0.2325
     40 C          68.0133   93.2232    9.0762 C.ar    1  UNL1        0.1381
     41 CL         68.8122   92.1732    8.3625 Cl      1  UNL1       -0.0613
     42 C          67.5258   92.9744   10.4728 C.ar    1  UNL1        0.0290
@<TRIPOS>BOND
     1    24    25    1
     2    25    26    1
     3    26    27    1
     4    27    28    1
     5    28    29   am
     6    29    30    2
     7    29    23    1
     8    23    33    1
     9    33    34    1
    10    34    35    1
    11    35    36    1
    12    36    37   ar
    13    37    38   ar
    14    38    39   ar
    15    39    40   ar
    16    40    41    1
    17    40    42   ar
    18    23     1    1
    19     1     2   am
    20     2     3    2
    21     2     5    1
    22     5     6   ar
    23     6     7   ar
    24     7     8   ar
    25     8     9   ar
    26     9    10   ar
    27    10    11    1
    28    11    12    1
    29    12    13   ar
    30    13    14   ar
    31    14    15   ar
    32    15    19    1
    33    19    20    1
    34    19    21    1
    35    19    22    1
    36    15    16   ar
    37    16    17   ar
    38    17    18    1
    39    28    31    1
    40    31    32    1
    41    32    25    1
    42    42    36   ar
    43    10     5   ar
    44    17    12   ar
    45     1     4    1
@<TRIPOS>MOLECULE
*****
 42 45 0 0 0
SMALL
GASTEIGER

@<TRIPOS>ATOM
      1 N          64.9769   90.0691   13.5949 N.am    1  UNL1       -0.2927
      2 C          64.9736   91.1842   14.5980 C.2     1  UNL1        0.2508
      3 O          63.6916   91.5931   15.2608 O.2     1  UNL1       -0.2700
      4 H          65.8183   89.8007   13.1599 H       1  UNL1        0.1502
      5 C          66.2524   91.8906   14.9385 C.ar    1  UNL1        0.1068
      6 C          66.5166   92.3248   16.3497 C.ar    1  UNL1        0.0108
      7 C          67.7954   93.0311   16.6902 C.ar    1  UNL1        0.0210
      8 C          68.8099   93.3032   15.6194 C.ar    1  UNL1        0.1021
      9 N          68.5457   92.8690   14.2081 N.ar    1  UNL1       -0.2097
     10 C          67.2669   92.1627   13.8677 C.ar    1  UNL1        0.2340
     11 O          67.0027   91.7285   12.4564 O.3     1  UNL1       -0.4351
     12 C          66.8567   92.7536   11.3712 C.ar    1  UNL1        0.1576
     13 C          65.8715   93.8741   11.5255 C.ar    1  UNL1        0.0384
     14 C          65.7255   94.8992   10.4401 C.ar    1  UNL1        0.0070
     15 C          66.5648   94.8039    9.2006 C.ar    1  UNL1        0.0725
     16 C          67.5501   93.6835    9.0463 C.ar    1  UNL1        0.0183
     17 C          67.6961   92.6583   10.1316 C.ar    1  UNL1        0.0921
     18 CL         68.6813   91.5379    9.9773 Cl      1  UNL1       -0.0791
     19 C          66.4188   95.8290    8.1154 C.3     1  UNL1        0.4186
     20 F          66.2728   96.8542    7.0301 F       1  UNL1       -0.1659
     21 F          65.3700   96.5346    8.9230 F       1  UNL1       -0.1659
     22 F          67.4676   95.1235    7.3078 F       1  UNL1       -0.1659
     23 C          63.6981   89.3627   13.2545 C.3     1  UNL1        0.1789
     24 C          60.3116   86.1127    8.2327 C.3     1  UNL1        0.0897
     25 N          60.9379   87.0575    9.2150 N.3     1  UNL1       -0.2686
     26 C          60.6829   88.5315    9.1051 C.3     1  UNL1        0.0939
     27 C          61.3092   89.4763   10.0875 C.3     1  UNL1        0.1108
     28 N          62.1905   88.9471   11.1798 N.am    1  UNL1       -0.2753
     29 C          62.8168   89.8919   12.1622 C.2     1  UNL1        0.2462
     30 O          62.5618   91.3660   12.0522 O.2     1  UNL1       -0.2730
     31 C          62.4455   87.4731   11.2897 C.3     1  UNL1        0.1108
     32 C          61.8192   86.5283   10.3074 C.3     1  UNL1        0.0939
     33 C          63.3006   88.1271   14.0064 C.3     1  UNL1        0.1715
     34 O          64.2007   87.5758   15.0723 O.3     1  UNL1       -0.3467
     35 C          64.8588   86.2414   14.8818 C.3     1  UNL1        0.1688
     36 C          64.0369   85.0484   14.4930 C.ar    1  UNL1        0.0112
     37 C          63.0328   84.4841   15.4540 C.ar    1  UNL1        0.0189
     38 C          62.2109   83.2911   15.0653 C.ar    1  UNL1        0.0996
     39 N          62.3930   82.6624   13.7156 N.ar    1  UNL1       -0.2325
     40 C          63.3971   83.2266   12.7547 C.ar    1  UNL1        0.1381
     41 CL         63.5792   82.5979   11.4051 Cl      1  UNL1       -0.0613
     42 C          64.2190   84.4197   13.1434 C.ar    1  UNL1        0.0290
@<TRIPOS>BOND
     1    24    25    1
     2    25    26    1
     3    26    27    1
     4    27    28    1
     5    28    29   am
     6    29    30    2
     7    29    23    1
     8    23    33    1
     9    33    34    1
    10    34    35    1
    11    35    36    1
    12    36    37   ar
    13    37    38   ar
    14    38    39   ar
    15    39    40   ar
    16    40    41    1
    17    40    42   ar
    18    23     1    1
    19     1     2   am
    20     2     3    2
    21     2     5    1
    22     5     6   ar
    23     6     7   ar
    24     7     8   ar
    25     8     9   ar
    26     9    10   ar
    27    10    11    1
    28    11    12    1
    29    12    13   ar
    30    13    14   ar
    31    14    15   ar
    32    15    19    1
    33    19    20    1
    34    19    21    1
    35    19    22    1
    36    15    16   ar
    37    16    17   ar
    38    17    18    1
    39    28    31    1
    40    31    32    1
    41    32    25    1
    42    42    36   ar
    43    10     5   ar
    44    17    12   ar
    45     1     4    1
@<TRIPOS>MOLECULE
*****
 42 45 0 0 0
SMALL
GASTEIGER

@<TRIPOS>ATOM
      1 N          63.0780   90.1129   13.8209 N.am    1  UNL1       -0.2927
      2 C          63.3687   88.6414   13.8305 C.2     1  UNL1        0.2508
      3 O          63.6721   87.9285   12.5461 O.2     1  UNL1       -0.2700
      4 H          62.8789   90.5809   14.6639 H       1  UNL1        0.1502
      5 C          63.3561   87.8828   15.1245 C.ar    1  UNL1        0.1068
      6 C          62.8159   88.5275   16.3665 C.ar    1  UNL1        0.0108
      7 C          62.8032   87.7689   17.6605 C.ar    1  UNL1        0.0210
      8 C          63.3307   86.3658   17.7125 C.ar    1  UNL1        0.1021
      9 N          63.8709   85.7211   16.4704 N.ar    1  UNL1       -0.2097
     10 C          63.8836   86.4796   15.1765 C.ar    1  UNL1        0.2340
     11 O          64.4238   85.8350   13.9344 O.3     1  UNL1       -0.4351
     12 C          64.0005   84.4438   13.5667 C.ar    1  UNL1        0.1576
     13 C          64.6500   83.2633   14.2259 C.ar    1  UNL1        0.0384
     14 C          64.2267   81.8720   13.8581 C.ar    1  UNL1        0.0070
     15 C          63.1540   81.6612   12.8311 C.ar    1  UNL1        0.0725
     16 C          62.5045   82.8417   12.1719 C.ar    1  UNL1        0.0183
     17 C          62.9278   84.2330   12.5396 C.ar    1  UNL1        0.0921
     18 CL         62.2783   85.4134   11.8804 Cl      1  UNL1       -0.0791
     19 C          62.7308   80.2700   12.4633 C.3     1  UNL1        0.4186
     20 F          62.3075   78.8787   12.0955 F       1  UNL1       -0.1659
     21 F          62.6678   79.9049   13.9168 F       1  UNL1       -0.1659
     22 F          62.7937   80.6351   11.0098 F       1  UNL1       -0.1659
     23 C          63.0907   90.8715   12.5269 C.3     1  UNL1        0.1789
     24 C          68.3753   93.3248   16.1744 C.3     1  UNL1        0.0897
     25 N          67.3643   92.8923   15.1542 N.3     1  UNL1       -0.2686
     26 C          67.5939   93.1829   13.7007 C.3     1  UNL1        0.0939
     27 C          66.5829   92.7504   12.6805 C.3     1  UNL1        0.1108
     28 N          65.3423   92.0272   13.1138 N.am    1  UNL1       -0.2753
     29 C          64.3313   91.5947   12.0936 C.2     1  UNL1        0.2462
     30 O          64.5609   91.8854   10.6401 O.2     1  UNL1       -0.2730
     31 C          65.1127   91.7366   14.5673 C.3     1  UNL1        0.1108
     32 C          66.1237   92.1691   15.5875 C.3     1  UNL1        0.0939
     33 C          61.8627   90.9069   11.6662 C.3     1  UNL1        0.1715
     34 O          61.8314   90.1482   10.3726 O.3     1  UNL1       -0.3467
     35 C          60.5417   89.5645    9.8765 C.3     1  UNL1        0.1688
     36 C          60.5464   88.2684    9.1216 C.ar    1  UNL1        0.0112
     37 C          59.3346   87.8496    8.3428 C.ar    1  UNL1        0.0189
     38 C          59.3393   86.5535    7.5879 C.ar    1  UNL1        0.0996
     39 N          60.5557   85.6760    7.6116 N.ar    1  UNL1       -0.2325
     40 C          61.7674   86.0947    8.3903 C.ar    1  UNL1        0.1381
     41 CL         62.9837   85.2173    8.4141 Cl      1  UNL1       -0.0613
     42 C          61.7627   87.3909    9.1453 C.ar    1  UNL1        0.0290
@<TRIPOS>BOND
     1    24    25    1
     2    25    26    1
     3    26    27    1
     4    27    28    1
     5    28    29   am
     6    29    30    2
     7    29    23    1
     8    23    33    1
     9    33    34    1
    10    34    35    1
    11    35    36    1
    12    36    37   ar
    13    37    38   ar
    14    38    39   ar
    15    39    40   ar
    16    40    41    1
    17    40    42   ar
    18    23     1    1
    19     1     2   am
    20     2     3    2
    21     2     5    1
    22     5     6   ar
    23     6     7   ar
    24     7     8   ar
    25     8     9   ar
    26     9    10   ar
    27    10    11    1
    28    11    12    1
    29    12    13   ar
    30    13    14   ar
    31    14    15   ar
    32    15    19    1
    33    19    20    1
    34    19    21    1
    35    19    22    1
    36    15    16   ar
    37    16    17   ar
    38    17    18    1
    39    28    31    1
    40    31    32    1
    41    32    25    1
    42    42    36   ar
    43    10     5   ar
    44    17    12   ar
    45     1     4    1
@<TRIPOS>MOLECULE
*****
 42 45 0 0 0
SMALL
GASTEIGER

@<TRIPOS>ATOM
      1 N          61.8358   85.1524   11.7290 N.am    1  UNL1       -0.2927
      2 C          62.0988   85.3544   10.2662 C.2     1  UNL1        0.2508
      3 O          63.3693   84.8425    9.6549 O.2     1  UNL1       -0.2700
      4 H          61.0019   85.4884   12.1302 H       1  UNL1        0.1502
      5 C          61.0914   86.0685    9.4145 C.ar    1  UNL1        0.1068
      6 C          60.8157   85.5913    8.0195 C.ar    1  UNL1        0.0108
      7 C          59.8083   86.3053    7.1678 C.ar    1  UNL1        0.0210
      8 C          59.0766   87.4966    7.7113 C.ar    1  UNL1        0.1021
      9 N          59.3523   87.9738    9.1064 N.ar    1  UNL1       -0.2097
     10 C          60.3597   87.2598    9.9580 C.ar    1  UNL1        0.2340
     11 O          60.6353   87.7371   11.3531 O.3     1  UNL1       -0.4351
     12 C          61.6720   88.7943   11.5930 C.ar    1  UNL1        0.1576
     13 C          62.9313   88.4554   12.3341 C.ar    1  UNL1        0.0384
     14 C          63.9680   89.5128   12.5740 C.ar    1  UNL1        0.0070
     15 C          63.7453   90.9088   12.0728 C.ar    1  UNL1        0.0725
     16 C          62.4860   91.2477   11.3316 C.ar    1  UNL1        0.0183
     17 C          61.4493   90.1905   11.0917 C.ar    1  UNL1        0.0921
     18 CL         60.1900   90.5293   10.3506 Cl      1  UNL1       -0.0791
     19 C          64.7819   91.9661   12.3126 C.3     1  UNL1        0.4186
     20 F          65.8186   93.0234   12.5525 F       1  UNL1       -0.1659
     21 F          64.9309   91.4984   13.7300 F       1  UNL1       -0.1659
     22 F          64.6330   92.4337   10.8952 F       1  UNL1       -0.1659
     23 C          62.8432   84.4383   12.5806 C.3     1  UNL1        0.1789
     24 C          62.8725   77.9390   10.3427 C.3     1  UNL1        0.0897
     25 N          62.7719   79.2443   11.0749 N.3     1  UNL1       -0.2686
     26 C          62.2981   79.2715   12.4978 C.3     1  UNL1        0.0939
     27 C          62.1975   80.5768   13.2300 C.3     1  UNL1        0.1108
     28 N          62.5707   81.8549   12.5392 N.am    1  UNL1       -0.2753
     29 C          62.4701   83.1602   13.2714 C.2     1  UNL1        0.2462
     30 O          61.9963   83.1874   14.6943 O.2     1  UNL1       -0.2730
     31 C          63.0444   81.8277   11.1163 C.3     1  UNL1        0.1108
     32 C          63.1450   80.5224   10.3841 C.3     1  UNL1        0.0939
     33 C          64.2238   85.0023   12.7414 C.3     1  UNL1        0.1715
     34 O          65.1055   84.5212   13.8555 O.3     1  UNL1       -0.3467
     35 C          65.5091   85.4617   14.9521 C.3     1  UNL1        0.1688
     36 C          64.4641   86.2407   15.6945 C.ar    1  UNL1        0.0112
     37 C          63.5162   85.5337   16.6174 C.ar    1  UNL1        0.0189
     38 C          62.4712   86.3127   17.3598 C.ar    1  UNL1        0.0996
     39 N          62.3741   87.7987   17.1792 N.ar    1  UNL1       -0.2325
     40 C          63.3220   88.5056   16.2564 C.ar    1  UNL1        0.1381
     41 CL         63.2248   89.9915   16.0758 Cl      1  UNL1       -0.0613
     42 C          64.3670   87.7266   15.5139 C.ar    1  UNL1        0.0290
@<TRIPOS>BOND
     1    24    25    1
     2    25    26    1
     3    26    27    1
     4    27    28    1
     5    28    29   am
     6    29    30    2
     7    29    23    1
     8    23    33    1
     9    33    34    1
    10    34    35    1
    11    35    36    1
    12    36    37   ar
    13    37    38   ar
    14    38    39   ar
    15    39    40   ar
    16    40    41    1
    17    40    42   ar
    18    23     1    1
    19     1     2   am
    20     2     3    2
    21     2     5    1
    22     5     6   ar
    23     6     7   ar
    24     7     8   ar
    25     8     9   ar
    26     9    10   ar
    27    10    11    1
    28    11    12    1
    29    12    13   ar
    30    13    14   ar
    31    14    15   ar
    32    15    19    1
    33    19    20    1
    34    19    21    1
    35    19    22    1
    36    15    16   ar
    37    16    17   ar
    38    17    18    1
    39    28    31    1
    40    31    32    1
    41    32    25    1
    42    42    36   ar
    43    10     5   ar
    44    17    12   ar
    45     1     4    1
@<TRIPOS>MOLECULE
*****
 42 45 0 0 0
SMALL
GASTEIGER

@<TRIPOS>ATOM
      1 N          63.4103   89.5201   12.6195 N.am    1  UNL1       -0.2927
      2 C          63.8659   89.4690   14.0477 C.2     1  UNL1        0.2508
      3 O          63.7117   88.2042   14.8393 O.2     1  UNL1       -0.2700
      4 H          63.5115   90.3503   12.1000 H       1  UNL1        0.1502
      5 C          64.4756   90.6827   14.6844 C.ar    1  UNL1        0.1068
      6 C          64.2019   90.9904   16.1268 C.ar    1  UNL1        0.0108
      7 C          64.8115   92.2040   16.7635 C.ar    1  UNL1        0.0210
      8 C          65.6949   93.1099   15.9579 C.ar    1  UNL1        0.1021
      9 N          65.9686   92.8021   14.5155 N.ar    1  UNL1       -0.2097
     10 C          65.3590   91.5885   13.8788 C.ar    1  UNL1        0.2340
     11 O          65.6327   91.2807   12.4365 O.3     1  UNL1       -0.4351
     12 C          66.0658   92.3741   11.5054 C.ar    1  UNL1        0.1576
     13 C          65.0811   93.4149   11.0614 C.ar    1  UNL1        0.0384
     14 C          65.5143   94.5083   10.1302 C.ar    1  UNL1        0.0070
     15 C          66.9320   94.5608    9.6431 C.ar    1  UNL1        0.0725
     16 C          67.9166   93.5199   10.0871 C.ar    1  UNL1        0.0183
     17 C          67.4835   92.4266   11.0182 C.ar    1  UNL1        0.0921
     18 CL         68.4682   91.3857   11.4622 Cl      1  UNL1       -0.0791
     19 C          67.3651   95.6542    8.7120 C.3     1  UNL1        0.4186
     20 F          67.7982   96.7476    7.7809 F       1  UNL1       -0.1659
     21 F          67.3476   94.6857    7.5667 F       1  UNL1       -0.1659
     22 F          67.3825   96.6226    9.8574 F       1  UNL1       -0.1659
     23 C          62.8006   88.3065   11.9828 C.3     1  UNL1        0.1789
     24 C          61.0068   84.7996    6.3495 C.3     1  UNL1        0.0897
     25 N          61.1598   85.7127    7.5297 N.3     1  UNL1       -0.2686
     26 C          60.1312   86.7710    7.7976 C.3     1  UNL1        0.0939
     27 C          60.2843   87.6841    8.9778 C.3     1  UNL1        0.1108
     28 N          61.4659   87.5388    9.8902 N.am    1  UNL1       -0.2753
     29 C          61.6190   88.4518   11.0704 C.2     1  UNL1        0.2462
     30 O          60.5904   89.5102   11.3382 O.2     1  UNL1       -0.2730
     31 C          62.4945   86.4804    9.6224 C.3     1  UNL1        0.1108
     32 C          62.3415   85.5673    8.4422 C.3     1  UNL1        0.0939
     33 C          63.3726   86.9475   12.2586 C.3     1  UNL1        0.1715
     34 O          62.5053   85.8738   12.8459 O.3     1  UNL1       -0.3467
     35 C          63.1138   84.8024   13.7014 C.3     1  UNL1        0.1688
     36 C          62.8683   83.3576   13.3817 C.ar    1  UNL1        0.0112
     37 C          62.3211   82.4391   14.4339 C.ar    1  UNL1        0.0189
     38 C          62.0755   80.9943   14.1142 C.ar    1  UNL1        0.0996
     39 N          62.3771   80.4680   12.7423 N.ar    1  UNL1       -0.2325
     40 C          62.9243   81.3864   11.6902 C.ar    1  UNL1        0.1381
     41 CL         63.2259   80.8600   10.3183 Cl      1  UNL1       -0.0613
     42 C          63.1699   82.8312   12.0098 C.ar    1  UNL1        0.0290
@<TRIPOS>BOND
     1    24    25    1
     2    25    26    1
     3    26    27    1
     4    27    28    1
     5    28    29   am
     6    29    30    2
     7    29    23    1
     8    23    33    1
     9    33    34    1
    10    34    35    1
    11    35    36    1
    12    36    37   ar
    13    37    38   ar
    14    38    39   ar
    15    39    40   ar
    16    40    41    1
    17    40    42   ar
    18    23     1    1
    19     1     2   am
    20     2     3    2
    21     2     5    1
    22     5     6   ar
    23     6     7   ar
    24     7     8   ar
    25     8     9   ar
    26     9    10   ar
    27    10    11    1
    28    11    12    1
    29    12    13   ar
    30    13    14   ar
    31    14    15   ar
    32    15    19    1
    33    19    20    1
    34    19    21    1
    35    19    22    1
    36    15    16   ar
    37    16    17   ar
    38    17    18    1
    39    28    31    1
    40    31    32    1
    41    32    25    1
    42    42    36   ar
    43    10     5   ar
    44    17    12   ar
    45     1     4    1
