@<TRIPOS>MOLECULE
*****
 44 51 0 0 0
SMALL
GASTEIGER

@<TRIPOS>ATOM
      1 O          61.2968   86.9012   11.4373 O.2     1  UNL1       -0.2522
      2 C          61.9836   88.1797   11.0583 C.2     1  UNL1        0.3078
      3 N          63.0323   88.7631   11.9582 N.am    1  UNL1       -0.2901
      4 N          61.6217   88.8749    9.7793 N.am    1  UNL1       -0.2403
      5 C          62.3084   90.1534    9.4002 C.3     1  UNL1        0.1216
      6 C          61.9465   90.8486    8.1213 C.3     1  UNL1        0.1189
      7 N          60.8979   90.2652    7.2214 N.pl3   1  UNL1       -0.2696
      8 C          60.2111   88.9866    7.6004 C.ar    1  UNL1        0.0666
      9 C          59.1624   88.4032    6.7004 C.ar    1  UNL1        0.0161
     10 C          58.4756   87.1247    7.0794 C.ar    1  UNL1        0.0014
     11 C          58.8376   86.4295    8.3584 C.ar    1  UNL1        0.0014
     12 C          59.8862   87.0129    9.2584 C.ar    1  UNL1        0.0162
     13 C          60.5730   88.2915    8.8793 C.ar    1  UNL1        0.0689
     14 H          63.4830   89.6023   11.7094 H       1  UNL1        0.1509
     15 C          63.3942   88.0679   13.2372 C.3     1  UNL1        0.0731
     16 C          63.4934   86.5717   13.2755 C.3     1  UNL1        0.0204
     17 C          63.7561   87.3728   14.5162 C.3     1  UNL1        0.0018
     18 C          64.1181   86.6776   15.7951 C.3     1  UNL1        0.0024
     19 C          64.0188   88.1738   15.7568 C.3     1  UNL1        0.0018
     20 C          63.6569   88.8690   14.4779 C.3     1  UNL1        0.0204
     21 C          64.0490   85.7066   15.2870 C.3     1  UNL1        0.0285
     22 C          63.9545   84.3803   14.5928 C.3     1  UNL1        0.0884
     23 O          64.0537   82.8841   14.6311 O.3     1  UNL1       -0.3867
     24 C          64.2173   85.1814   15.8334 C.3     1  UNL1        0.0269
     25 C          63.5926   85.0755   13.3138 C.3     1  UNL1        0.0285
     26 H          64.2950   82.5989   15.5262 H       1  UNL1        0.2102
     27 C          60.5359   90.9603    5.9423 C.ar    1  UNL1        0.1356
     28 C          59.1120   91.3509    5.6780 C.ar    1  UNL1        0.0359
     29 C          58.7502   92.0460    4.3990 C.ar    1  UNL1        0.0190
     30 C          59.8122   92.3506    3.3844 C.ar    1  UNL1        0.0675
     31 C          61.2361   91.9600    3.6488 C.ar    1  UNL1        0.1147
     32 N          61.5979   91.2649    4.9278 N.ar    1  UNL1       -0.2276
     33 N          59.4502   93.0457    2.1054 N.pl3   1  UNL1       -0.3033
     34 C          58.6359   92.3313    1.0679 C.3     1  UNL1        0.1100
     35 C          58.2739   93.0264   -0.2111 C.3     1  UNL1        0.1168
     36 N          58.7264   94.4360   -0.4526 N.3     1  UNL1       -0.1560
     37 C          59.5408   95.1505    0.5849 C.3     1  UNL1        0.1168
     38 C          59.9027   94.4553    1.8639 C.3     1  UNL1        0.1100
     39 S          58.3645   95.1312   -1.7315 S.O2    1  UNL1        0.0422
     40 O          58.2855   96.4377   -0.9990 O.2     1  UNL1       -0.1573
     41 O          58.4434   93.8246   -2.4640 O.2     1  UNL1       -0.1573
     42 C          58.0026   95.8263   -3.0105 C.3     1  UNL1        0.1459
     43 C          58.4151   96.4677   -4.3021 C.3     1  UNL1        0.0270
     44 C          56.9632   96.3890   -3.9340 C.3     1  UNL1        0.0270
@<TRIPOS>BOND
     1     1     2    2
     2     2     3   am
     3    15     3    1
     4    15    16    1
     5    16    17    1
     6    17    18    1
     7    18    19    1
     8    19    20    1
     9    20    21    1
    10    21    22    1
    11    22    23    1
    12    22    24    1
    13    22    25    1
    14     2     4   am
    15     4     5    1
    16     5     6    1
    17     6     7    1
    18     7    27    1
    19    27    28   ar
    20    28    29   ar
    21    29    30   ar
    22    30    33    1
    23    33    34    1
    24    34    35    1
    25    35    36    1
    26    36    39    1
    27    39    40    2
    28    39    41    2
    29    39    42    1
    30    42    43    1
    31    43    44    1
    32    36    37    1
    33    37    38    1
    34    30    31   ar
    35    31    32   ar
    36     7     8    1
    37     8     9   ar
    38     9    10   ar
    39    10    11   ar
    40    11    12   ar
    41    12    13   ar
    42    20    15    1
    43    13     4    1
    44    25    16    1
    45    32    27   ar
    46    13     8   ar
    47    24    18    1
    48    38    33    1
    49    44    42    1
    50     3    14    1
    51    23    26    1
@<TRIPOS>MOLECULE
*****
 44 51 0 0 0
SMALL
GASTEIGER

@<TRIPOS>ATOM
      1 O          58.8584   96.4634   -2.4399 O.2     1  UNL1       -0.2522
      2 C          58.1523   95.1820   -2.1093 C.2     1  UNL1        0.3078
      3 N          57.1089   94.6389   -3.0401 N.am    1  UNL1       -0.2901
      4 N          58.4896   94.4436   -0.8480 N.am    1  UNL1       -0.2403
      5 C          57.7835   93.1621   -0.5174 C.3     1  UNL1        0.1216
      6 C          58.1208   92.4237    0.7439 C.3     1  UNL1        0.1189
      7 N          59.1642   92.9667    1.6747 N.pl3   1  UNL1       -0.2696
      8 C          59.8703   94.2482    1.3441 C.ar    1  UNL1        0.0666
      9 C          60.9138   94.7912    2.2750 C.ar    1  UNL1        0.0161
     10 C          61.6199   96.0727    1.9444 C.ar    1  UNL1        0.0014
     11 C          61.2825   96.8111    0.6830 C.ar    1  UNL1        0.0014
     12 C          60.2391   96.2681   -0.2477 C.ar    1  UNL1        0.0162
     13 C          59.5330   94.9866    0.0828 C.ar    1  UNL1        0.0689
     14 H          56.6455   93.7979   -2.8231 H       1  UNL1        0.1509
     15 C          56.7716   95.3773   -4.3015 C.3     1  UNL1        0.0731
     16 C          55.3631   95.3761   -4.8174 C.3     1  UNL1        0.0204
     17 C          56.4342   96.1157   -5.5628 C.3     1  UNL1        0.0018
     18 C          56.0968   96.8541   -6.8241 C.3     1  UNL1        0.0024
     19 C          57.5053   96.8553   -6.3082 C.3     1  UNL1        0.0018
     20 C          57.8427   96.1169   -5.0469 C.3     1  UNL1        0.0204
     21 C          55.0488   96.5410   -6.7272 C.3     1  UNL1        0.0285
     22 C          53.6172   96.1133   -6.5946 C.3     1  UNL1        0.0884
     23 O          52.2087   96.1121   -7.1105 O.3     1  UNL1       -0.3867
     24 C          54.6883   96.8529   -7.3400 C.3     1  UNL1        0.0269
     25 C          53.9546   95.3749   -5.3333 C.3     1  UNL1        0.0285
     26 H          52.1634   96.6321   -7.9281 H       1  UNL1        0.2102
     27 C          59.5015   92.2283    2.9360 C.ar    1  UNL1        0.1356
     28 C          60.9108   91.7815    3.1895 C.ar    1  UNL1        0.0359
     29 C          61.2481   91.0431    4.4508 C.ar    1  UNL1        0.0190
     30 C          60.1761   90.7516    5.4587 C.ar    1  UNL1        0.0675
     31 C          58.7668   91.1984    5.2052 C.ar    1  UNL1        0.1147
     32 N          58.4295   91.9367    3.9439 N.ar    1  UNL1       -0.2276
     33 N          60.5134   90.0131    6.7201 N.pl3   1  UNL1       -0.3033
     34 C          61.3462   90.6757    7.7771 C.3     1  UNL1        0.1100
     35 C          61.6835   89.9373    9.0385 C.3     1  UNL1        0.1168
     36 N          61.1880   88.5363    9.2428 N.3     1  UNL1       -0.1560
     37 C          60.3552   87.8737    8.1856 C.3     1  UNL1        0.1168
     38 C          60.0179   88.6122    6.9243 C.3     1  UNL1        0.1100
     39 S          61.5253   87.7979   10.5041 S.O2    1  UNL1        0.0422
     40 O          62.1863   86.7204    9.6965 O.2     1  UNL1       -0.1573
     41 O          60.8643   88.8753   11.3116 O.2     1  UNL1       -0.1573
     42 C          61.8626   87.0595   11.7654 C.3     1  UNL1        0.1459
     43 C          61.5917   85.9417   12.7283 C.3     1  UNL1        0.0270
     44 C          62.7178   86.8983   12.9872 C.3     1  UNL1        0.0270
@<TRIPOS>BOND
     1     1     2    2
     2     2     3   am
     3    15     3    1
     4    15    16    1
     5    16    17    1
     6    17    18    1
     7    18    19    1
     8    19    20    1
     9    20    21    1
    10    21    22    1
    11    22    23    1
    12    22    24    1
    13    22    25    1
    14     2     4   am
    15     4     5    1
    16     5     6    1
    17     6     7    1
    18     7    27    1
    19    27    28   ar
    20    28    29   ar
    21    29    30   ar
    22    30    33    1
    23    33    34    1
    24    34    35    1
    25    35    36    1
    26    36    39    1
    27    39    40    2
    28    39    41    2
    29    39    42    1
    30    42    43    1
    31    43    44    1
    32    36    37    1
    33    37    38    1
    34    30    31   ar
    35    31    32   ar
    36     7     8    1
    37     8     9   ar
    38     9    10   ar
    39    10    11   ar
    40    11    12   ar
    41    12    13   ar
    42    20    15    1
    43    13     4    1
    44    25    16    1
    45    32    27   ar
    46    13     8   ar
    47    24    18    1
    48    38    33    1
    49    44    42    1
    50     3    14    1
    51    23    26    1
