@<TRIPOS>MOLECULE
*****
 28 30 0 0 0
SMALL
GASTEIGER

@<TRIPOS>ATOM
      1 C          64.5940   91.1035   14.5811 C.2     1  UNL1        0.2407
      2 O          65.1219   92.2039   15.4531 O.2     1  UNL1       -0.2737
      3 N          64.7142   91.2055   13.0894 N.am    1  UNL1       -0.2387
      4 C          65.3623   92.4079   12.4697 C.2     1  UNL1        0.3102
      5 O          65.8902   93.5084   13.3416 O.2     1  UNL1       -0.2521
      6 N          65.4824   92.5099   10.9780 N.am    1  UNL1       -0.2673
      7 H          64.3677   90.4832   12.5172 H       1  UNL1        0.1591
      8 H          65.1360   91.7876   10.4057 H       1  UNL1        0.1564
      9 C          66.1305   93.7124   10.3583 C.ar    1  UNL1        0.0622
     10 C          65.5068   95.0671   10.5192 C.ar    1  UNL1        0.0156
     11 C          66.1549   96.2695    9.8996 C.ar    1  UNL1        0.0013
     12 C          67.4266   96.1174    9.1189 C.ar    1  UNL1        0.0009
     13 C          68.0503   94.7627    8.9579 C.ar    1  UNL1        0.0126
     14 C          67.4023   93.5602    9.5776 C.ar    1  UNL1        0.0711
     15 CL         68.0260   92.2056    9.4166 Cl      1  UNL1       -0.0810
     16 C          63.9460   89.9011   15.2009 C.3     1  UNL1        0.1488
     17 S          64.4314   88.5249   14.8538 S.3     1  UNL1       -0.0840
     18 C          64.3278   85.5288   14.9651 C.3     1  UNL1        0.0543
     19 C          63.7236   86.2574   13.8014 C.ar    1  UNL1        0.0828
     20 N          63.0676   85.4879   12.6935 N.ar    1  UNL1       -0.2461
     21 C          62.4634   86.2166   11.5298 C.ar    1  UNL1        0.0986
     22 C          61.8074   85.4471   10.4219 C.ar    1  UNL1        0.0206
     23 C          61.2032   86.1757    9.2583 C.ar    1  UNL1        0.0016
     24 C          61.2550   87.6738    9.2026 C.ar    1  UNL1        0.0016
     25 C          61.9110   88.4432   10.3105 C.ar    1  UNL1        0.0207
     26 C          62.5152   87.7146   11.4741 C.ar    1  UNL1        0.0994
     27 N          63.1712   88.4841   12.5822 N.ar    1  UNL1       -0.2364
     28 C          63.7754   87.7555   13.7458 C.ar    1  UNL1        0.1206
@<TRIPOS>BOND
     1    18    19    1
     2    19    20   ar
     3    20    21   ar
     4    21    22   ar
     5    22    23   ar
     6    23    24   ar
     7    24    25   ar
     8    25    26   ar
     9    26    27   ar
    10    27    28   ar
    11    28    17    1
    12    17    16    1
    13    16     1    1
    14     1     2    2
    15     1     3   am
    16     3     4   am
    17     4     5    2
    18     4     6   am
    19     6     9    1
    20     9    10   ar
    21    10    11   ar
    22    11    12   ar
    23    12    13   ar
    24    13    14   ar
    25    14    15    1
    26    28    19   ar
    27    14     9   ar
    28    26    21   ar
    29     3     7    1
    30     6     8    1
@<TRIPOS>MOLECULE
*****
 28 30 0 0 0
SMALL
GASTEIGER

@<TRIPOS>ATOM
      1 C          61.7775   90.5443   11.0943 C.2     1  UNL1        0.2407
      2 O          62.6316   91.1193   10.0034 O.2     1  UNL1       -0.2737
      3 N          62.2820   90.5179   12.5066 N.am    1  UNL1       -0.2387
      4 C          63.6405   91.0664   12.8282 C.2     1  UNL1        0.3102
      5 O          64.4947   91.6415   11.7373 O.2     1  UNL1       -0.2521
      6 N          64.1450   91.0400   14.2406 N.am    1  UNL1       -0.2673
      7 H          61.7214   90.1405   13.2226 H       1  UNL1        0.1591
      8 H          63.5844   90.6627   14.9565 H       1  UNL1        0.1564
      9 C          65.5036   91.5886   14.5621 C.ar    1  UNL1        0.0622
     10 C          66.6193   91.4589   13.5679 C.ar    1  UNL1        0.0156
     11 C          67.9779   92.0075   13.8894 C.ar    1  UNL1        0.0013
     12 C          68.2207   92.6857   15.2050 C.ar    1  UNL1        0.0009
     13 C          67.1050   92.8154   16.1992 C.ar    1  UNL1        0.0126
     14 C          65.7465   92.2669   15.8777 C.ar    1  UNL1        0.0711
     15 CL         64.6308   92.3966   16.8719 Cl      1  UNL1       -0.0810
     16 C          60.4190   89.9957   10.7727 C.3     1  UNL1        0.1488
     17 S          60.0544   88.6023   11.1916 S.3     1  UNL1       -0.0840
     18 C          60.2744   87.8821    8.2877 C.3     1  UNL1        0.0543
     19 C          61.0190   87.0841    9.3168 C.ar    1  UNL1        0.0828
     20 N          61.8734   85.9261    8.8940 N.ar    1  UNL1       -0.2461
     21 C          62.6179   85.1282    9.9231 C.ar    1  UNL1        0.0986
     22 C          63.4724   83.9702    9.5003 C.ar    1  UNL1        0.0206
     23 C          64.2169   83.1723   10.5294 C.ar    1  UNL1        0.0016
     24 C          64.1068   83.5324   11.9814 C.ar    1  UNL1        0.0016
     25 C          63.2524   84.6904   12.4042 C.ar    1  UNL1        0.0207
     26 C          62.5079   85.4883   11.3751 C.ar    1  UNL1        0.0994
     27 N          61.6534   86.6464   11.7979 N.ar    1  UNL1       -0.2364
     28 C          60.9089   87.4443   10.7688 C.ar    1  UNL1        0.1206
@<TRIPOS>BOND
     1    18    19    1
     2    19    20   ar
     3    20    21   ar
     4    21    22   ar
     5    22    23   ar
     6    23    24   ar
     7    24    25   ar
     8    25    26   ar
     9    26    27   ar
    10    27    28   ar
    11    28    17    1
    12    17    16    1
    13    16     1    1
    14     1     2    2
    15     1     3   am
    16     3     4   am
    17     4     5    2
    18     4     6   am
    19     6     9    1
    20     9    10   ar
    21    10    11   ar
    22    11    12   ar
    23    12    13   ar
    24    13    14   ar
    25    14    15    1
    26    28    19   ar
    27    14     9   ar
    28    26    21   ar
    29     3     7    1
    30     6     8    1
@<TRIPOS>MOLECULE
*****
 28 30 0 0 0
SMALL
GASTEIGER

@<TRIPOS>ATOM
      1 C          61.7778   89.3403   11.3184 C.2     1  UNL1        0.2407
      2 O          61.6387   90.7376   10.7910 O.2     1  UNL1       -0.2737
      3 N          62.7849   89.0393   12.3886 N.am    1  UNL1       -0.2387
      4 C          63.6528   90.1356   12.9314 C.2     1  UNL1        0.3102
      5 O          63.5138   91.5330   12.4040 O.2     1  UNL1       -0.2521
      6 N          64.6599   89.8347   14.0015 N.am    1  UNL1       -0.2673
      7 H          62.8762   88.1222   12.7347 H       1  UNL1        0.1591
      8 H          64.7512   88.9175   14.3477 H       1  UNL1        0.1564
      9 C          65.5279   90.9311   14.5444 C.ar    1  UNL1        0.0622
     10 C          66.8121   91.2824   13.8536 C.ar    1  UNL1        0.0156
     11 C          67.6801   92.3788   14.3963 C.ar    1  UNL1        0.0013
     12 C          67.2638   93.1238   15.6298 C.ar    1  UNL1        0.0009
     13 C          65.9795   92.7724   16.3206 C.ar    1  UNL1        0.0126
     14 C          65.1115   91.6761   15.7779 C.ar    1  UNL1        0.0711
     15 CL         63.8272   91.3247   16.4686 Cl      1  UNL1       -0.0810
     16 C          60.9099   88.2440   10.7756 C.3     1  UNL1        0.1488
     17 S          61.5014   87.1886    9.8889 S.3     1  UNL1       -0.0840
     18 C          62.9890   85.2537    8.1445 C.3     1  UNL1        0.0543
     19 C          62.8885   85.0081    9.6209 C.ar    1  UNL1        0.0828
     20 N          63.5318   83.7952   10.2250 N.ar    1  UNL1       -0.2461
     21 C          63.4312   83.5497   11.7014 C.ar    1  UNL1        0.0986
     22 C          64.0745   82.3368   12.3055 C.ar    1  UNL1        0.0206
     23 C          63.9739   82.0913   13.7818 C.ar    1  UNL1        0.0016
     24 C          63.2301   83.0587   14.6540 C.ar    1  UNL1        0.0016
     25 C          62.5868   84.2716   14.0499 C.ar    1  UNL1        0.0207
     26 C          62.6874   84.5171   12.5736 C.ar    1  UNL1        0.0994
     27 N          62.0441   85.7301   11.9694 N.ar    1  UNL1       -0.2364
     28 C          62.1447   85.9756   10.4931 C.ar    1  UNL1        0.1206
@<TRIPOS>BOND
     1    18    19    1
     2    19    20   ar
     3    20    21   ar
     4    21    22   ar
     5    22    23   ar
     6    23    24   ar
     7    24    25   ar
     8    25    26   ar
     9    26    27   ar
    10    27    28   ar
    11    28    17    1
    12    17    16    1
    13    16     1    1
    14     1     2    2
    15     1     3   am
    16     3     4   am
    17     4     5    2
    18     4     6   am
    19     6     9    1
    20     9    10   ar
    21    10    11   ar
    22    11    12   ar
    23    12    13   ar
    24    13    14   ar
    25    14    15    1
    26    28    19   ar
    27    14     9   ar
    28    26    21   ar
    29     3     7    1
    30     6     8    1
@<TRIPOS>MOLECULE
*****
 28 30 0 0 0
SMALL
GASTEIGER

@<TRIPOS>ATOM
      1 C          62.3463   89.3470   10.9234 C.2     1  UNL1        0.2407
      2 O          61.6408   88.7860    9.7245 O.2     1  UNL1       -0.2737
      3 N          62.8730   88.4253   11.9831 N.am    1  UNL1       -0.2387
      4 C          62.6942   86.9426   11.8439 C.2     1  UNL1        0.3102
      5 O          61.9887   86.3814   10.6449 O.2     1  UNL1       -0.2521
      6 N          63.2209   86.0208   12.9036 N.am    1  UNL1       -0.2673
      7 H          63.3360   88.7936   12.7701 H       1  UNL1        0.1591
      8 H          63.6840   86.3891   13.6905 H       1  UNL1        0.1564
      9 C          63.0422   84.5380   12.7643 C.ar    1  UNL1        0.0622
     10 C          63.3748   83.8610   11.4678 C.ar    1  UNL1        0.0156
     11 C          63.1960   82.3782   11.3285 C.ar    1  UNL1        0.0013
     12 C          62.6847   81.5725   12.4857 C.ar    1  UNL1        0.0009
     13 C          62.3520   82.2495   13.7822 C.ar    1  UNL1        0.0126
     14 C          62.5308   83.7322   13.9216 C.ar    1  UNL1        0.0711
     15 CL         62.1982   84.4092   15.2181 Cl      1  UNL1       -0.0810
     16 C          62.5250   90.8298   11.0627 C.3     1  UNL1        0.1488
     17 S          63.8117   91.4733   10.6380 S.3     1  UNL1       -0.0840
     18 C          66.2959   92.9294    9.7963 C.3     1  UNL1        0.0543
     19 C          66.0343   92.6712   11.2506 C.ar    1  UNL1        0.0828
     20 N          67.0148   93.1410   12.2839 N.ar    1  UNL1       -0.2461
     21 C          66.7532   92.8827   13.7383 C.ar    1  UNL1        0.0986
     22 C          67.7337   93.3525   14.7716 C.ar    1  UNL1        0.0206
     23 C          67.4720   93.0942   16.2258 C.ar    1  UNL1        0.0016
     24 C          66.2299   92.3662   16.6467 C.ar    1  UNL1        0.0016
     25 C          65.2495   91.8964   15.6133 C.ar    1  UNL1        0.0207
     26 C          65.5111   92.1546   14.1591 C.ar    1  UNL1        0.0994
     27 N          64.5306   91.6848   13.1256 N.ar    1  UNL1       -0.2364
     28 C          64.7922   91.9431   11.6714 C.ar    1  UNL1        0.1206
@<TRIPOS>BOND
     1    18    19    1
     2    19    20   ar
     3    20    21   ar
     4    21    22   ar
     5    22    23   ar
     6    23    24   ar
     7    24    25   ar
     8    25    26   ar
     9    26    27   ar
    10    27    28   ar
    11    28    17    1
    12    17    16    1
    13    16     1    1
    14     1     2    2
    15     1     3   am
    16     3     4   am
    17     4     5    2
    18     4     6   am
    19     6     9    1
    20     9    10   ar
    21    10    11   ar
    22    11    12   ar
    23    12    13   ar
    24    13    14   ar
    25    14    15    1
    26    28    19   ar
    27    14     9   ar
    28    26    21   ar
    29     3     7    1
    30     6     8    1
@<TRIPOS>MOLECULE
*****
 28 30 0 0 0
SMALL
GASTEIGER

@<TRIPOS>ATOM
      1 C          63.5819   88.2850   13.2784 C.2     1  UNL1        0.2407
      2 O          63.9452   88.0166   14.7087 O.2     1  UNL1       -0.2737
      3 N          63.1730   87.1529   12.3833 N.am    1  UNL1       -0.2387
      4 C          63.1275   85.7524   12.9185 C.2     1  UNL1        0.3102
      5 O          63.4908   85.4839   14.3489 O.2     1  UNL1       -0.2521
      6 N          62.7187   84.6203   12.0234 N.am    1  UNL1       -0.2673
      7 H          62.9346   87.3290   11.4445 H       1  UNL1        0.1591
      8 H          62.4802   84.7965   11.0846 H       1  UNL1        0.1564
      9 C          62.6732   83.2197   12.5587 C.ar    1  UNL1        0.0622
     10 C          62.0623   82.9497   13.9018 C.ar    1  UNL1        0.0156
     11 C          62.0168   81.5492   14.4371 C.ar    1  UNL1        0.0013
     12 C          62.5821   80.4188   13.6293 C.ar    1  UNL1        0.0009
     13 C          63.1930   80.6889   12.2862 C.ar    1  UNL1        0.0126
     14 C          63.2385   82.0894   11.7509 C.ar    1  UNL1        0.0711
     15 CL         63.8494   82.3594   10.4078 Cl      1  UNL1       -0.0810
     16 C          63.6274   89.6854   12.7432 C.3     1  UNL1        0.1488
     17 S          62.4802   90.2178   11.9366 S.3     1  UNL1       -0.0840
     18 C          59.5593   90.6266   11.3878 C.3     1  UNL1        0.0543
     19 C          60.3067   89.5281   10.6915 C.ar    1  UNL1        0.0828
     20 N          59.5936   88.6342    9.7208 N.ar    1  UNL1       -0.2461
     21 C          60.3411   87.5357    9.0244 C.ar    1  UNL1        0.0986
     22 C          59.6280   86.6417    8.0537 C.ar    1  UNL1        0.0206
     23 C          60.3754   85.5433    7.3574 C.ar    1  UNL1        0.0016
     24 C          61.8359   85.3389    7.6318 C.ar    1  UNL1        0.0016
     25 C          62.5489   86.2329    8.6025 C.ar    1  UNL1        0.0207
     26 C          61.8015   87.3313    9.2988 C.ar    1  UNL1        0.0994
     27 N          62.5145   88.2254   10.2696 N.ar    1  UNL1       -0.2364
     28 C          61.7671   89.3237   10.9659 C.ar    1  UNL1        0.1206
@<TRIPOS>BOND
     1    18    19    1
     2    19    20   ar
     3    20    21   ar
     4    21    22   ar
     5    22    23   ar
     6    23    24   ar
     7    24    25   ar
     8    25    26   ar
     9    26    27   ar
    10    27    28   ar
    11    28    17    1
    12    17    16    1
    13    16     1    1
    14     1     2    2
    15     1     3   am
    16     3     4   am
    17     4     5    2
    18     4     6   am
    19     6     9    1
    20     9    10   ar
    21    10    11   ar
    22    11    12   ar
    23    12    13   ar
    24    13    14   ar
    25    14    15    1
    26    28    19   ar
    27    14     9   ar
    28    26    21   ar
    29     3     7    1
    30     6     8    1
@<TRIPOS>MOLECULE
*****
 28 30 0 0 0
SMALL
GASTEIGER

@<TRIPOS>ATOM
      1 C          63.8157   85.8296   15.5692 C.2     1  UNL1        0.2407
      2 O          65.2389   85.5739   15.1702 O.2     1  UNL1       -0.2737
      3 N          63.2445   87.2126   15.4650 N.am    1  UNL1       -0.2387
      4 C          64.0964   88.3400   14.9618 C.2     1  UNL1        0.3102
      5 O          65.5196   88.0844   14.5628 O.2     1  UNL1       -0.2521
      6 N          63.5251   89.7230   14.8576 N.am    1  UNL1       -0.2673
      7 H          62.3104   87.3804   15.7269 H       1  UNL1        0.1591
      8 H          62.5910   89.8908   15.1195 H       1  UNL1        0.1564
      9 C          64.3771   90.8505   14.3544 C.ar    1  UNL1        0.0622
     10 C          65.2738   91.5928   15.3003 C.ar    1  UNL1        0.0156
     11 C          66.1258   92.7202   14.7971 C.ar    1  UNL1        0.0013
     12 C          66.0809   93.1052   13.3481 C.ar    1  UNL1        0.0009
     13 C          65.1841   92.3628   12.4022 C.ar    1  UNL1        0.0126
     14 C          64.3322   91.2355   12.9054 C.ar    1  UNL1        0.0711
     15 CL         63.4354   90.4931   11.9595 Cl      1  UNL1       -0.0810
     16 C          62.9639   84.7022   16.0724 C.3     1  UNL1        0.1488
     17 S          62.4880   83.6410   15.1250 S.3     1  UNL1       -0.0840
     18 C          63.7433   81.4340   13.5271 C.3     1  UNL1        0.0543
     19 C          63.3206   82.7038   12.8494 C.ar    1  UNL1        0.0828
     20 N          63.5256   82.8699   11.3728 N.ar    1  UNL1       -0.2461
     21 C          63.1029   84.1397   10.6951 C.ar    1  UNL1        0.0986
     22 C          63.3079   84.3059    9.2186 C.ar    1  UNL1        0.0206
     23 C          62.8852   85.5756    8.5410 C.ar    1  UNL1        0.0016
     24 C          62.2576   86.6791    9.3399 C.ar    1  UNL1        0.0016
     25 C          62.0526   86.5129   10.8165 C.ar    1  UNL1        0.0207
     26 C          62.4753   85.2432   11.4941 C.ar    1  UNL1        0.0994
     27 N          62.2703   85.0770   12.9708 N.ar    1  UNL1       -0.2364
     28 C          62.6930   83.8073   13.6484 C.ar    1  UNL1        0.1206
@<TRIPOS>BOND
     1    18    19    1
     2    19    20   ar
     3    20    21   ar
     4    21    22   ar
     5    22    23   ar
     6    23    24   ar
     7    24    25   ar
     8    25    26   ar
     9    26    27   ar
    10    27    28   ar
    11    28    17    1
    12    17    16    1
    13    16     1    1
    14     1     2    2
    15     1     3   am
    16     3     4   am
    17     4     5    2
    18     4     6   am
    19     6     9    1
    20     9    10   ar
    21    10    11   ar
    22    11    12   ar
    23    12    13   ar
    24    13    14   ar
    25    14    15    1
    26    28    19   ar
    27    14     9   ar
    28    26    21   ar
    29     3     7    1
    30     6     8    1
@<TRIPOS>MOLECULE
*****
 28 30 0 0 0
SMALL
GASTEIGER

@<TRIPOS>ATOM
      1 C          62.8862   89.2856   12.2001 C.2     1  UNL1        0.2407
      2 O          63.5773   89.2232   13.5299 O.2     1  UNL1       -0.2737
      3 N          62.5157   88.0190   11.4871 N.am    1  UNL1       -0.2387
      4 C          62.8364   86.6898   12.1039 C.2     1  UNL1        0.3102
      5 O          63.5276   86.6273   13.4338 O.2     1  UNL1       -0.2521
      6 N          62.4660   85.4232   11.3910 N.am    1  UNL1       -0.2673
      7 H          62.0621   88.0600   10.6143 H       1  UNL1        0.1591
      8 H          62.0123   85.4642   10.5182 H       1  UNL1        0.1564
      9 C          62.7867   84.0940   12.0079 C.ar    1  UNL1        0.0622
     10 C          62.3892   83.8099   13.4261 C.ar    1  UNL1        0.0156
     11 C          62.7099   82.4808   14.0430 C.ar    1  UNL1        0.0013
     12 C          63.4280   81.4358   13.2417 C.ar    1  UNL1        0.0009
     13 C          63.8254   81.7198   11.8235 C.ar    1  UNL1        0.0126
     14 C          63.5048   83.0489   11.2065 C.ar    1  UNL1        0.0711
     15 CL         63.9022   83.3330    9.7883 Cl      1  UNL1       -0.0810
     16 C          62.5655   90.6148   11.5832 C.3     1  UNL1        0.1488
     17 S          63.6688   91.4800   11.0503 S.3     1  UNL1       -0.0840
     18 C          66.2366   92.4928    9.8753 C.3     1  UNL1        0.0543
     19 C          66.0731   92.4133   11.3643 C.ar    1  UNL1        0.0828
     20 N          67.1934   92.8401   12.2657 N.ar    1  UNL1       -0.2461
     21 C          67.0299   92.7605   13.7547 C.ar    1  UNL1        0.0986
     22 C          68.1503   93.1873   14.6561 C.ar    1  UNL1        0.0206
     23 C          67.9867   93.1078   16.1450 C.ar    1  UNL1        0.0016
     24 C          66.7028   92.6014   16.7325 C.ar    1  UNL1        0.0016
     25 C          65.5824   92.1745   15.8311 C.ar    1  UNL1        0.0207
     26 C          65.7460   92.2541   14.3422 C.ar    1  UNL1        0.0994
     27 N          64.6256   91.8273   13.4407 N.ar    1  UNL1       -0.2364
     28 C          64.7892   91.9069   11.9518 C.ar    1  UNL1        0.1206
@<TRIPOS>BOND
     1    18    19    1
     2    19    20   ar
     3    20    21   ar
     4    21    22   ar
     5    22    23   ar
     6    23    24   ar
     7    24    25   ar
     8    25    26   ar
     9    26    27   ar
    10    27    28   ar
    11    28    17    1
    12    17    16    1
    13    16     1    1
    14     1     2    2
    15     1     3   am
    16     3     4   am
    17     4     5    2
    18     4     6   am
    19     6     9    1
    20     9    10   ar
    21    10    11   ar
    22    11    12   ar
    23    12    13   ar
    24    13    14   ar
    25    14    15    1
    26    28    19   ar
    27    14     9   ar
    28    26    21   ar
    29     3     7    1
    30     6     8    1
@<TRIPOS>MOLECULE
*****
 28 30 0 0 0
SMALL
GASTEIGER

@<TRIPOS>ATOM
      1 C          61.8916   88.6484   10.7096 C.2     1  UNL1        0.2407
      2 O          61.1011   88.0342    9.5926 O.2     1  UNL1       -0.2737
      3 N          62.5663   87.7708   11.7218 N.am    1  UNL1       -0.2387
      4 C          62.4505   86.2790   11.6170 C.2     1  UNL1        0.3102
      5 O          61.6600   85.6647   10.4999 O.2     1  UNL1       -0.2521
      6 N          63.1252   85.4013   12.6292 N.am    1  UNL1       -0.2673
      7 H          63.0852   88.1739   12.4550 H       1  UNL1        0.1591
      8 H          63.6441   85.8045   13.3624 H       1  UNL1        0.1564
      9 C          63.0094   83.9094   12.5243 C.ar    1  UNL1        0.0622
     10 C          63.3774   83.2167   11.2458 C.ar    1  UNL1        0.0156
     11 C          63.2616   81.7249   11.1409 C.ar    1  UNL1        0.0013
     12 C          62.7778   80.9258   12.3145 C.ar    1  UNL1        0.0009
     13 C          62.4098   81.6186   13.5930 C.ar    1  UNL1        0.0126
     14 C          62.5256   83.1104   13.6979 C.ar    1  UNL1        0.0711
     15 CL         62.1576   83.8032   14.9765 Cl      1  UNL1       -0.0810
     16 C          62.0074   90.1402   10.8145 C.3     1  UNL1        0.1488
     17 S          63.3605   90.7864   10.8550 S.3     1  UNL1       -0.0840
     18 C          61.9576   90.0886   13.4133 C.3     1  UNL1        0.0543
     19 C          63.2796   90.7964   13.4518 C.ar    1  UNL1        0.0828
     20 N          63.9001   91.1552   14.7695 N.ar    1  UNL1       -0.2461
     21 C          65.2221   91.8630   14.8080 C.ar    1  UNL1        0.0986
     22 C          65.8426   92.2219   16.1256 C.ar    1  UNL1        0.0206
     23 C          67.1645   92.9296   16.1641 C.ar    1  UNL1        0.0016
     24 C          67.8660   93.2785   14.8849 C.ar    1  UNL1        0.0016
     25 C          67.2455   92.9197   13.5673 C.ar    1  UNL1        0.0207
     26 C          65.9235   92.2119   13.5288 C.ar    1  UNL1        0.0994
     27 N          65.3030   91.8531   12.2112 N.ar    1  UNL1       -0.2364
     28 C          63.9810   91.1453   12.1727 C.ar    1  UNL1        0.1206
@<TRIPOS>BOND
     1    18    19    1
     2    19    20   ar
     3    20    21   ar
     4    21    22   ar
     5    22    23   ar
     6    23    24   ar
     7    24    25   ar
     8    25    26   ar
     9    26    27   ar
    10    27    28   ar
    11    28    17    1
    12    17    16    1
    13    16     1    1
    14     1     2    2
    15     1     3   am
    16     3     4   am
    17     4     5    2
    18     4     6   am
    19     6     9    1
    20     9    10   ar
    21    10    11   ar
    22    11    12   ar
    23    12    13   ar
    24    13    14   ar
    25    14    15    1
    26    28    19   ar
    27    14     9   ar
    28    26    21   ar
    29     3     7    1
    30     6     8    1
