@<TRIPOS>MOLECULE
*****
 24 25 0 0 0
SMALL
GASTEIGER

@<TRIPOS>ATOM
      1 N          62.8437   80.5111   12.3209 N.am    1  UNL1       -0.2623
      2 C          62.7282   79.3577   11.3689 C.3     1  UNL1        0.1164
      3 C          63.2893   81.8537   11.8220 C.2     1  UNL1        0.3072
      4 O          63.6194   82.0428   10.3711 O.2     1  UNL1       -0.2523
      5 N          63.4048   83.0070   12.7740 N.am    1  UNL1       -0.2634
      6 C          63.0747   82.8179   14.2250 C.3     1  UNL1        0.0993
      7 C          63.1902   83.9713   15.1770 C.3     1  UNL1        0.0442
      8 C          63.6358   85.3138   14.6781 C.2     1  UNL1       -0.0326
      9 C          63.7513   86.4672   15.6301 C.2     1  UNL1        0.0412
     10 C          63.9659   85.5030   13.2272 C.3     1  UNL1        0.0442
     11 C          63.8504   84.3496   12.2752 C.3     1  UNL1        0.0993
     12 C          64.1969   87.8098   15.1312 C.1     1  UNL1       -0.0583
     13 C          64.6425   89.1524   14.6323 C.1     1  UNL1       -0.0405
     14 C          65.0882   90.4949   14.1334 C.ar    1  UNL1        0.1224
     15 C          64.5443   91.0342   12.8436 C.ar    1  UNL1        0.0276
     16 C          64.9899   92.3767   12.3447 C.ar    1  UNL1        0.0034
     17 C          65.9794   93.1801   13.1356 C.ar    1  UNL1        0.0148
     18 C          66.5233   92.6409   14.4253 C.ar    1  UNL1        0.0600
     19 C          67.5128   93.4443   15.2161 C.3     1  UNL1        0.0521
     20 N          66.0777   91.2983   14.9242 N.ar    1  UNL1       -0.2414
     21 C          62.5136   80.3219   13.7719 C.3     1  UNL1        0.0950
     22 C          61.2113   79.6923   14.1688 C.3     1  UNL1        0.0216
     23 C          58.6442   79.8687   14.5284 C.3     1  UNL1        0.0001
     24 C          59.9500   80.5042   14.1531 C.3     1  UNL1        0.0018
@<TRIPOS>BOND
     1    23    24    1
     2    24    22    1
     3    22    21    1
     4    21     1    1
     5     1     2    1
     6     1     3   am
     7     3     4    2
     8     3     5   am
     9     5     6    1
    10     6     7    1
    11     7     8    1
    12     8     9    2
    13     9    12    1
    14    12    13    3
    15    13    14    1
    16    14    15   ar
    17    15    16   ar
    18    16    17   ar
    19    17    18   ar
    20    18    19    1
    21    18    20   ar
    22     8    10    1
    23    10    11    1
    24    11     5    1
    25    20    14   ar
@<TRIPOS>MOLECULE
*****
 24 25 0 0 0
SMALL
GASTEIGER

@<TRIPOS>ATOM
      1 N          63.4034   94.6942   -0.4504 N.am    1  UNL1       -0.2623
      2 C          64.5456   95.1028   -1.3327 C.3     1  UNL1        0.1164
      3 C          63.6208   93.6871    0.6397 C.2     1  UNL1        0.3072
      4 O          64.9803   93.0886    0.8476 O.2     1  UNL1       -0.2523
      5 N          62.4785   93.2785    1.5220 N.am    1  UNL1       -0.2634
      6 C          61.1189   93.8770    1.3141 C.3     1  UNL1        0.0993
      7 C          59.9767   93.4685    2.1963 C.3     1  UNL1        0.0442
      8 C          60.1941   92.4614    3.2865 C.2     1  UNL1       -0.0326
      9 C          59.0518   92.0528    4.1688 C.2     1  UNL1        0.0412
     10 C          61.5536   91.8629    3.4944 C.3     1  UNL1        0.0442
     11 C          62.6959   92.2715    2.6122 C.3     1  UNL1        0.0993
     12 C          59.2692   91.0457    5.2589 C.1     1  UNL1       -0.0583
     13 C          59.4865   90.0385    6.3491 C.1     1  UNL1       -0.0405
     14 C          59.7039   89.0315    7.4393 C.ar    1  UNL1        0.1224
     15 C          59.2259   87.6206    7.2632 C.ar    1  UNL1        0.0276
     16 C          59.4433   86.6135    8.3533 C.ar    1  UNL1        0.0034
     17 C          60.1386   87.0172    9.6196 C.ar    1  UNL1        0.0148
     18 C          60.6166   88.4280    9.7958 C.ar    1  UNL1        0.0600
     19 C          61.3119   88.8318   11.0620 C.3     1  UNL1        0.0521
     20 N          60.3992   89.4352    8.7056 N.ar    1  UNL1       -0.2414
     21 C          62.0437   95.2928   -0.6584 C.3     1  UNL1        0.0950
     22 C          61.4132   95.2672   -2.0191 C.3     1  UNL1        0.0216
     23 C          59.6257   93.3851   -2.1308 C.3     1  UNL1        0.0001
     24 C          60.9259   93.9710   -2.5957 C.3     1  UNL1        0.0018
@<TRIPOS>BOND
     1    23    24    1
     2    24    22    1
     3    22    21    1
     4    21     1    1
     5     1     2    1
     6     1     3   am
     7     3     4    2
     8     3     5   am
     9     5     6    1
    10     6     7    1
    11     7     8    1
    12     8     9    2
    13     9    12    1
    14    12    13    3
    15    13    14    1
    16    14    15   ar
    17    15    16   ar
    18    16    17   ar
    19    17    18   ar
    20    18    19    1
    21    18    20   ar
    22     8    10    1
    23    10    11    1
    24    11     5    1
    25    20    14   ar
@<TRIPOS>MOLECULE
*****
 24 25 0 0 0
SMALL
GASTEIGER

@<TRIPOS>ATOM
      1 N          63.9680   86.1364   14.0784 N.am    1  UNL1       -0.2623
      2 C          64.8172   86.3253   15.3003 C.3     1  UNL1        0.1164
      3 C          63.6076   87.3166   13.2257 C.2     1  UNL1        0.3072
      4 O          64.0963   88.6858   13.5950 O.2     1  UNL1       -0.2523
      5 N          62.7584   87.1276   12.0037 N.am    1  UNL1       -0.2634
      6 C          62.2697   85.7584   11.6345 C.3     1  UNL1        0.0993
      7 C          61.4205   85.5694   10.4125 C.3     1  UNL1        0.0442
      8 C          61.0600   86.7496    9.5598 C.2     1  UNL1       -0.0326
      9 C          60.2108   86.5606    8.3379 C.2     1  UNL1        0.0412
     10 C          61.5487   88.1188    9.9291 C.3     1  UNL1        0.0442
     11 C          62.3979   88.3078   11.1511 C.3     1  UNL1        0.0993
     12 C          59.8504   87.7408    7.4852 C.1     1  UNL1       -0.0583
     13 C          59.4898   88.9211    6.6325 C.1     1  UNL1       -0.0405
     14 C          59.1294   90.1013    5.7798 C.ar    1  UNL1        0.1224
     15 C          57.7167   90.6052    5.7551 C.ar    1  UNL1        0.0276
     16 C          57.3563   91.7854    4.9024 C.ar    1  UNL1        0.0034
     17 C          58.4084   92.4618    4.0744 C.ar    1  UNL1        0.0148
     18 C          59.8210   91.9579    4.0991 C.ar    1  UNL1        0.0600
     19 C          60.8731   92.6342    3.2711 C.3     1  UNL1        0.0521
     20 N          60.1815   90.7776    4.9518 N.ar    1  UNL1       -0.2414
     21 C          63.4793   84.7671   13.7091 C.3     1  UNL1        0.0950
     22 C          64.4631   83.6713   13.4237 C.3     1  UNL1        0.0216
     23 C          64.3489   82.7695   10.9898 C.3     1  UNL1        0.0001
     24 C          64.1098   82.5789   12.4583 C.3     1  UNL1        0.0018
@<TRIPOS>BOND
     1    23    24    1
     2    24    22    1
     3    22    21    1
     4    21     1    1
     5     1     2    1
     6     1     3   am
     7     3     4    2
     8     3     5   am
     9     5     6    1
    10     6     7    1
    11     7     8    1
    12     8     9    2
    13     9    12    1
    14    12    13    3
    15    13    14    1
    16    14    15   ar
    17    15    16   ar
    18    16    17   ar
    19    17    18   ar
    20    18    19    1
    21    18    20   ar
    22     8    10    1
    23    10    11    1
    24    11     5    1
    25    20    14   ar
@<TRIPOS>MOLECULE
*****
 24 25 0 0 0
SMALL
GASTEIGER

@<TRIPOS>ATOM
      1 N          61.4118   94.2869    0.7446 N.am    1  UNL1       -0.2623
      2 C          62.2481   94.9792   -0.2905 C.3     1  UNL1        0.1164
      3 C          62.0511   93.3341    1.7107 C.2     1  UNL1        0.3072
      4 O          63.5267   93.0735    1.6417 O.2     1  UNL1       -0.2523
      5 N          61.2149   92.6418    2.7458 N.am    1  UNL1       -0.2634
      6 C          59.7394   92.9023    2.8148 C.3     1  UNL1        0.0993
      7 C          58.9031   92.2101    3.8500 C.3     1  UNL1        0.0442
      8 C          59.5424   91.2572    4.8160 C.2     1  UNL1       -0.0326
      9 C          58.7062   90.5650    5.8511 C.2     1  UNL1        0.0412
     10 C          61.0180   90.9967    4.7470 C.3     1  UNL1        0.0442
     11 C          61.8542   91.6890    3.7119 C.3     1  UNL1        0.0993
     12 C          59.3455   89.6121    6.8172 C.1     1  UNL1       -0.0583
     13 C          59.9849   88.6592    7.7833 C.1     1  UNL1       -0.0405
     14 C          60.6242   87.7064    8.7494 C.ar    1  UNL1        0.1224
     15 C          60.2607   87.7565   10.2039 C.ar    1  UNL1        0.0276
     16 C          60.9000   86.8037   11.1700 C.ar    1  UNL1        0.0034
     17 C          61.9028   85.8007   10.6817 C.ar    1  UNL1        0.0148
     18 C          62.2663   85.7506    9.2273 C.ar    1  UNL1        0.0600
     19 C          63.2691   84.7476    8.7389 C.3     1  UNL1        0.0521
     20 N          61.6270   86.7035    8.2611 N.ar    1  UNL1       -0.2414
     21 C          59.9362   94.5475    0.8136 C.3     1  UNL1        0.0950
     22 C          59.0657   94.2494   -0.3710 C.3     1  UNL1        0.0216
     23 C          58.8834   92.8333   -2.5416 C.3     1  UNL1        0.0001
     24 C          59.1833   92.9301   -1.0751 C.3     1  UNL1        0.0018
@<TRIPOS>BOND
     1    23    24    1
     2    24    22    1
     3    22    21    1
     4    21     1    1
     5     1     2    1
     6     1     3   am
     7     3     4    2
     8     3     5   am
     9     5     6    1
    10     6     7    1
    11     7     8    1
    12     8     9    2
    13     9    12    1
    14    12    13    3
    15    13    14    1
    16    14    15   ar
    17    15    16   ar
    18    16    17   ar
    19    17    18   ar
    20    18    19    1
    21    18    20   ar
    22     8    10    1
    23    10    11    1
    24    11     5    1
    25    20    14   ar
@<TRIPOS>MOLECULE
*****
 24 25 0 0 0
SMALL
GASTEIGER

@<TRIPOS>ATOM
      1 N          62.8948   81.6739   13.8126 N.am    1  UNL1       -0.2623
      2 C          63.1231   80.3368   14.4529 C.3     1  UNL1        0.1164
      3 C          63.6724   82.8699   14.2760 C.2     1  UNL1        0.3072
      4 O          64.6784   82.7289   15.3796 O.2     1  UNL1       -0.2523
      5 N          63.4441   84.2071   13.6357 N.am    1  UNL1       -0.2634
      6 C          62.4381   84.3481   12.5320 C.3     1  UNL1        0.0993
      7 C          62.2097   85.6852   11.8917 C.3     1  UNL1        0.0442
      8 C          62.9874   86.8813   12.3550 C.2     1  UNL1       -0.0326
      9 C          62.7590   88.2184   11.7147 C.2     1  UNL1        0.0412
     10 C          63.9934   86.7402   13.4587 C.3     1  UNL1        0.0442
     11 C          64.2217   85.4031   14.0990 C.3     1  UNL1        0.0993
     12 C          63.5367   89.4144   12.1781 C.1     1  UNL1       -0.0583
     13 C          64.3143   90.6106   12.6414 C.1     1  UNL1       -0.0405
     14 C          65.0920   91.8066   13.1047 C.ar    1  UNL1        0.1224
     15 C          65.5983   91.8716   14.5152 C.ar    1  UNL1        0.0276
     16 C          66.3760   93.0677   14.9785 C.ar    1  UNL1        0.0034
     17 C          66.6473   94.1987   14.0314 C.ar    1  UNL1        0.0148
     18 C          66.1410   94.1338   12.6210 C.ar    1  UNL1        0.0600
     19 C          66.4124   95.2648   11.6738 C.3     1  UNL1        0.0521
     20 N          65.3633   92.9377   12.1576 N.ar    1  UNL1       -0.2414
     21 C          61.8887   81.8149   12.7090 C.3     1  UNL1        0.0950
     22 C          62.2550   81.4292   11.3065 C.3     1  UNL1        0.0216
     23 C          64.1862   82.7714   10.2024 C.3     1  UNL1        0.0001
     24 C          63.6820   81.5173   10.8527 C.3     1  UNL1        0.0018
@<TRIPOS>BOND
     1    23    24    1
     2    24    22    1
     3    22    21    1
     4    21     1    1
     5     1     2    1
     6     1     3   am
     7     3     4    2
     8     3     5   am
     9     5     6    1
    10     6     7    1
    11     7     8    1
    12     8     9    2
    13     9    12    1
    14    12    13    3
    15    13    14    1
    16    14    15   ar
    17    15    16   ar
    18    16    17   ar
    19    17    18   ar
    20    18    19    1
    21    18    20   ar
    22     8    10    1
    23    10    11    1
    24    11     5    1
    25    20    14   ar
@<TRIPOS>MOLECULE
*****
 24 25 0 0 0
SMALL
GASTEIGER

@<TRIPOS>ATOM
      1 N          62.8735   80.7035   13.0204 N.am    1  UNL1       -0.2623
      2 C          62.9512   79.2706   13.4574 C.3     1  UNL1        0.1164
      3 C          63.4562   81.7833   13.8831 C.2     1  UNL1        0.3072
      4 O          64.1167   81.4303   15.1828 O.2     1  UNL1       -0.2523
      5 N          63.3785   83.2161   13.4461 N.am    1  UNL1       -0.2634
      6 C          62.7181   83.5691   12.1465 C.3     1  UNL1        0.0993
      7 C          62.6404   85.0019   11.7095 C.3     1  UNL1        0.0442
      8 C          63.2232   86.0818   12.5722 C.2     1  UNL1       -0.0326
      9 C          63.1455   87.5146   12.1352 C.2     1  UNL1        0.0412
     10 C          63.8836   85.7288   13.8718 C.3     1  UNL1        0.0442
     11 C          63.9613   84.2960   14.3088 C.3     1  UNL1        0.0993
     12 C          63.7282   88.5945   12.9979 C.1     1  UNL1       -0.0583
     13 C          64.3110   89.6744   13.8606 C.1     1  UNL1       -0.0405
     14 C          64.8938   90.7542   14.7233 C.ar    1  UNL1        0.1224
     15 C          64.1110   91.2903   15.8852 C.ar    1  UNL1        0.0276
     16 C          64.6937   92.3701   16.7479 C.ar    1  UNL1        0.0034
     17 C          66.0593   92.9140   16.4488 C.ar    1  UNL1        0.0148
     18 C          66.8421   92.3780   15.2869 C.ar    1  UNL1        0.0600
     19 C          68.2076   92.9219   14.9878 C.3     1  UNL1        0.0521
     20 N          66.2593   91.2981   14.4242 N.ar    1  UNL1       -0.2414
     21 C          62.2130   81.0564   11.7207 C.3     1  UNL1        0.0950
     22 C          62.9816   80.9537   10.4367 C.3     1  UNL1        0.0216
     23 C          62.5642   78.3934   10.2929 C.3     1  UNL1        0.0001
     24 C          62.9322   79.6887    9.6321 C.3     1  UNL1        0.0018
@<TRIPOS>BOND
     1    23    24    1
     2    24    22    1
     3    22    21    1
     4    21     1    1
     5     1     2    1
     6     1     3   am
     7     3     4    2
     8     3     5   am
     9     5     6    1
    10     6     7    1
    11     7     8    1
    12     8     9    2
    13     9    12    1
    14    12    13    3
    15    13    14    1
    16    14    15   ar
    17    15    16   ar
    18    16    17   ar
    19    17    18   ar
    20    18    19    1
    21    18    20   ar
    22     8    10    1
    23    10    11    1
    24    11     5    1
    25    20    14   ar
@<TRIPOS>MOLECULE
*****
 24 25 0 0 0
SMALL
GASTEIGER

@<TRIPOS>ATOM
      1 N          72.7672   80.8831   10.0642 N.am    1  UNL1       -0.2623
      2 C          72.4786   82.3238    9.7622 C.3     1  UNL1        0.1164
      3 C          72.2638   80.2680   11.3362 C.2     1  UNL1        0.3072
      4 O          71.4718   81.0935   12.3063 O.2     1  UNL1       -0.2523
      5 N          72.5524   78.8273   11.6381 N.am    1  UNL1       -0.2634
      6 C          73.3444   78.0017   10.6680 C.3     1  UNL1        0.0993
      7 C          73.6330   76.5611   10.9699 C.3     1  UNL1        0.0442
      8 C          73.1296   75.9459   12.2419 C.2     1  UNL1       -0.0326
      9 C          73.4182   74.5052   12.5438 C.2     1  UNL1        0.0412
     10 C          72.3376   76.7714   13.2121 C.3     1  UNL1        0.0442
     11 C          72.0490   78.2121   12.9102 C.3     1  UNL1        0.0993
     12 C          72.9148   73.8901   13.8159 C.1     1  UNL1       -0.0583
     13 C          72.4114   73.2749   15.0880 C.1     1  UNL1       -0.0405
     14 C          71.9080   72.6598   16.3601 C.ar    1  UNL1        0.1224
     15 C          71.3904   71.2519   16.3588 C.ar    1  UNL1        0.0276
     16 C          70.8871   70.6367   17.6309 C.ar    1  UNL1        0.0034
     17 C          70.9012   71.4294   18.9042 C.ar    1  UNL1        0.0148
     18 C          71.4187   72.8373   18.9055 C.ar    1  UNL1        0.0600
     19 C          71.4328   73.6300   20.1788 C.3     1  UNL1        0.0521
     20 N          71.9221   73.4525   17.6334 N.ar    1  UNL1       -0.2414
     21 C          73.5592   80.0576    9.0939 C.3     1  UNL1        0.0950
     22 C          73.3351   80.2131    7.6190 C.3     1  UNL1        0.0216
     23 C          72.0830   79.2627    5.5504 C.3     1  UNL1        0.0001
     24 C          72.0810   79.6812    6.9907 C.3     1  UNL1        0.0018
@<TRIPOS>BOND
     1    23    24    1
     2    24    22    1
     3    22    21    1
     4    21     1    1
     5     1     2    1
     6     1     3   am
     7     3     4    2
     8     3     5   am
     9     5     6    1
    10     6     7    1
    11     7     8    1
    12     8     9    2
    13     9    12    1
    14    12    13    3
    15    13    14    1
    16    14    15   ar
    17    15    16   ar
    18    16    17   ar
    19    17    18   ar
    20    18    19    1
    21    18    20   ar
    22     8    10    1
    23    10    11    1
    24    11     5    1
    25    20    14   ar
