@<TRIPOS>MOLECULE
*****
 21 23 0 0 0
SMALL
GASTEIGER

@<TRIPOS>ATOM
      1 C          64.9418   91.8293   12.1969 C.ar    1  UNL1        0.0537
      2 C          63.7035   91.2338   11.5953 C.ar    1  UNL1        0.1019
      3 N          62.8939   90.2406   12.3750 N.ar    1  UNL1       -0.2422
      4 C          63.3226   89.8428   13.7563 C.ar    1  UNL1        0.0989
      5 C          64.5609   90.4383   14.3579 C.ar    1  UNL1        0.0208
      6 C          65.3705   91.4315   13.5782 C.ar    1  UNL1        0.0075
      7 C          66.6089   92.0271   14.1798 C.ar    1  UNL1        0.0194
      8 C          66.5144   92.8480   15.4317 C.ar    1  UNL1        0.0031
      9 C          67.7527   93.4435   16.0333 C.ar    1  UNL1        0.0207
     10 C          69.0856   93.2181   15.3830 C.ar    1  UNL1        0.0989
     11 N          69.1800   92.3972   14.1311 N.ar    1  UNL1       -0.2423
     12 C          67.9417   91.8017   13.5295 C.ar    1  UNL1        0.0988
     13 C          66.6572   94.9127   10.5795 C.ar    1  UNL1        0.1385
     14 C          67.3379   93.7892    9.8552 C.ar    1  UNL1        0.0375
     15 C          66.7781   92.4975   10.3729 C.ar    1  UNL1        0.0404
     16 C          65.7515   92.8226   11.4172 C.ar    1  UNL1        0.1464
     17 O          65.6768   94.3152   11.5448 O.2     1  UNL1       -0.4563
     18 N          67.5519   96.8559    9.1052 N.3     1  UNL1       -0.3148
     19 C          66.9121   96.3766   10.3744 C.3     1  UNL1        0.1307
     20 H          67.6488   97.8708    9.1355 H       1  UNL1        0.1192
     21 H          66.9688   96.5936    8.3104 H       1  UNL1        0.1192
@<TRIPOS>BOND
     1    18    19    1
     2    19    13    1
     3    13    14   ar
     4    14    15   ar
     5    15    16   ar
     6    16     1    1
     7     1     2   ar
     8     2     3   ar
     9     3     4   ar
    10     4     5   ar
    11     5     6   ar
    12     6     7    1
    13     7     8   ar
    14     8     9   ar
    15     9    10   ar
    16    10    11   ar
    17    11    12   ar
    18    16    17   ar
    19    17    13   ar
    20     6     1   ar
    21    12     7   ar
    22    18    20    1
    23    18    21    1
@<TRIPOS>MOLECULE
*****
 21 23 0 0 0
SMALL
GASTEIGER

@<TRIPOS>ATOM
      1 C          63.9033   90.6037   12.7930 C.ar    1  UNL1        0.0537
      2 C          64.3897   91.7544   11.9627 C.ar    1  UNL1        0.1019
      3 N          65.5920   92.5382   12.3985 N.ar    1  UNL1       -0.2422
      4 C          66.3079   92.1713   13.6645 C.ar    1  UNL1        0.0989
      5 C          65.8215   91.0207   14.4948 C.ar    1  UNL1        0.0208
      6 C          64.6192   90.2369   14.0590 C.ar    1  UNL1        0.0075
      7 C          64.1327   89.0861   14.8893 C.ar    1  UNL1        0.0194
      8 C          64.5172   87.6829   14.5246 C.ar    1  UNL1        0.0031
      9 C          64.0307   86.5322   15.3547 C.ar    1  UNL1        0.0207
     10 C          63.1598   86.7847   16.5497 C.ar    1  UNL1        0.0989
     11 N          62.7754   88.1880   16.9144 N.ar    1  UNL1       -0.2423
     12 C          63.2619   89.3387   16.0841 C.ar    1  UNL1        0.0988
     13 C          60.4107   89.0583   12.1004 C.ar    1  UNL1        0.1385
     14 C          61.2906   88.1688   11.2728 C.ar    1  UNL1        0.0375
     15 C          62.7059   88.6395   11.4315 C.ar    1  UNL1        0.0404
     16 C          62.7009   89.8198   12.3572 C.ar    1  UNL1        0.1464
     17 O          61.2824   90.0787   12.7705 O.2     1  UNL1       -0.4563
     18 N          58.3128   88.5620   13.5503 N.3     1  UNL1       -0.3148
     19 C          58.9209   88.9470   12.2342 C.3     1  UNL1        0.1307
     20 H          57.2971   88.5348   13.4605 H       1  UNL1        0.1192
     21 H          58.5732   89.2480   14.2588 H       1  UNL1        0.1192
@<TRIPOS>BOND
     1    18    19    1
     2    19    13    1
     3    13    14   ar
     4    14    15   ar
     5    15    16   ar
     6    16     1    1
     7     1     2   ar
     8     2     3   ar
     9     3     4   ar
    10     4     5   ar
    11     5     6   ar
    12     6     7    1
    13     7     8   ar
    14     8     9   ar
    15     9    10   ar
    16    10    11   ar
    17    11    12   ar
    18    16    17   ar
    19    17    13   ar
    20     6     1   ar
    21    12     7   ar
    22    18    20    1
    23    18    21    1
@<TRIPOS>MOLECULE
*****
 21 23 0 0 0
SMALL
GASTEIGER

@<TRIPOS>ATOM
      1 C          64.4551   90.3764   14.0308 C.ar    1  UNL1        0.0537
      2 C          65.5426   91.3150   14.4625 C.ar    1  UNL1        0.1019
      3 N          66.0027   92.4046   13.5401 N.ar    1  UNL1       -0.2422
      4 C          65.3754   92.5557   12.1860 C.ar    1  UNL1        0.0989
      5 C          64.2879   91.6171   11.7543 C.ar    1  UNL1        0.0208
      6 C          63.8278   90.5275   12.6767 C.ar    1  UNL1        0.0075
      7 C          62.7402   89.5888   12.2451 C.ar    1  UNL1        0.0194
      8 C          63.0908   88.2471   11.6734 C.ar    1  UNL1        0.0031
      9 C          62.0033   87.3084   11.2417 C.ar    1  UNL1        0.0207
     10 C          60.5653   87.7115   11.3817 C.ar    1  UNL1        0.0989
     11 N          60.2147   89.0533   11.9534 N.ar    1  UNL1       -0.2423
     12 C          61.3023   89.9919   12.3851 C.ar    1  UNL1        0.0988
     13 C          63.6022   87.0977   15.9250 C.ar    1  UNL1        0.1385
     14 C          62.9712   88.1223   16.8206 C.ar    1  UNL1        0.0375
     15 C          63.2139   89.4752   16.2200 C.ar    1  UNL1        0.0404
     16 C          63.9949   89.2868   14.9533 C.ar    1  UNL1        0.1464
     17 O          64.2349   87.8174   14.7710 O.2     1  UNL1       -0.4563
     18 N          64.5989   84.7493   15.4335 N.3     1  UNL1       -0.3148
     19 C          63.6007   85.6139   16.1449 C.3     1  UNL1        0.1307
     20 H          64.4546   83.7749   15.6983 H       1  UNL1        0.1192
     21 H          65.5428   85.0358   15.6926 H       1  UNL1        0.1192
@<TRIPOS>BOND
     1    18    19    1
     2    19    13    1
     3    13    14   ar
     4    14    15   ar
     5    15    16   ar
     6    16     1    1
     7     1     2   ar
     8     2     3   ar
     9     3     4   ar
    10     4     5   ar
    11     5     6   ar
    12     6     7    1
    13     7     8   ar
    14     8     9   ar
    15     9    10   ar
    16    10    11   ar
    17    11    12   ar
    18    16    17   ar
    19    17    13   ar
    20     6     1   ar
    21    12     7   ar
    22    18    20    1
    23    18    21    1
@<TRIPOS>MOLECULE
*****
 21 23 0 0 0
SMALL
GASTEIGER

@<TRIPOS>ATOM
      1 C          63.8917   90.4510   12.7098 C.ar    1  UNL1        0.0537
      2 C          64.3333   91.6130   11.8705 C.ar    1  UNL1        0.1019
      3 N          65.4085   92.5325   12.3689 N.ar    1  UNL1       -0.2422
      4 C          66.0422   92.2899   13.7066 C.ar    1  UNL1        0.0989
      5 C          65.6006   91.1278   14.5460 C.ar    1  UNL1        0.0208
      6 C          64.5254   90.2084   14.0476 C.ar    1  UNL1        0.0075
      7 C          64.0838   89.0462   14.8870 C.ar    1  UNL1        0.0194
      8 C          64.5334   87.6576   14.5413 C.ar    1  UNL1        0.0031
      9 C          64.0919   86.4955   15.3806 C.ar    1  UNL1        0.0207
     10 C          63.2006   86.7220   16.5657 C.ar    1  UNL1        0.0989
     11 N          62.7510   88.1106   16.9114 N.ar    1  UNL1       -0.2423
     12 C          63.1926   89.2728   16.0721 C.ar    1  UNL1        0.0988
     13 C          61.6574   87.5545   11.4123 C.ar    1  UNL1        0.1385
     14 C          60.6662   88.6785   11.4769 C.ar    1  UNL1        0.0375
     15 C          61.3825   89.9003   11.9708 C.ar    1  UNL1        0.0404
     16 C          62.8164   89.5314   12.2115 C.ar    1  UNL1        0.1464
     17 O          62.9863   88.0816   11.8663 O.2     1  UNL1       -0.4563
     18 N          62.2495   85.0248   11.4302 N.3     1  UNL1       -0.3148
     19 C          61.3700   86.1499   10.9711 C.3     1  UNL1        0.1307
     20 H          61.9106   84.1465   11.0377 H       1  UNL1        0.1192
     21 H          62.2303   84.9720   12.4486 H       1  UNL1        0.1192
@<TRIPOS>BOND
     1    18    19    1
     2    19    13    1
     3    13    14   ar
     4    14    15   ar
     5    15    16   ar
     6    16     1    1
     7     1     2   ar
     8     2     3   ar
     9     3     4   ar
    10     4     5   ar
    11     5     6   ar
    12     6     7    1
    13     7     8   ar
    14     8     9   ar
    15     9    10   ar
    16    10    11   ar
    17    11    12   ar
    18    16    17   ar
    19    17    13   ar
    20     6     1   ar
    21    12     7   ar
    22    18    20    1
    23    18    21    1
@<TRIPOS>MOLECULE
*****
 21 23 0 0 0
SMALL
GASTEIGER

@<TRIPOS>ATOM
      1 C          63.4785   84.0144   13.4671 C.ar    1  UNL1        0.0537
      2 C          63.7909   83.0368   14.5610 C.ar    1  UNL1        0.1019
      3 N          63.5452   81.5722   14.3505 N.ar    1  UNL1       -0.2422
      4 C          62.9871   81.0851   13.0462 C.ar    1  UNL1        0.0989
      5 C          62.6748   82.0627   11.9523 C.ar    1  UNL1        0.0208
      6 C          62.9205   83.5274   12.1627 C.ar    1  UNL1        0.0075
      7 C          62.6081   84.5051   11.0688 C.ar    1  UNL1        0.0194
      8 C          63.3968   84.4804    9.7931 C.ar    1  UNL1        0.0031
      9 C          63.0845   85.4580    8.6992 C.ar    1  UNL1        0.0207
     10 C          61.9834   86.4604    8.8809 C.ar    1  UNL1        0.0989
     11 N          61.1947   86.4850   10.1566 N.ar    1  UNL1       -0.2423
     12 C          61.5070   85.5073   11.2505 C.ar    1  UNL1        0.0988
     13 C          63.7327   87.8863   13.3669 C.ar    1  UNL1        0.1385
     14 C          64.4720   87.5800   14.6357 C.ar    1  UNL1        0.0375
     15 C          64.4668   86.0923   14.8276 C.ar    1  UNL1        0.0404
     16 C          63.7242   85.4792   13.6775 C.ar    1  UNL1        0.1464
     17 O          63.2706   86.5879   12.7748 O.2     1  UNL1       -0.4563
     18 N          62.4016   90.1173   13.3393 N.3     1  UNL1       -0.3148
     19 C          63.4969   89.2513   12.7914 C.3     1  UNL1        0.1307
     20 H          62.3842   91.0035   12.8346 H       1  UNL1        0.1192
     21 H          62.5705   90.2933   14.3297 H       1  UNL1        0.1192
@<TRIPOS>BOND
     1    18    19    1
     2    19    13    1
     3    13    14   ar
     4    14    15   ar
     5    15    16   ar
     6    16     1    1
     7     1     2   ar
     8     2     3   ar
     9     3     4   ar
    10     4     5   ar
    11     5     6   ar
    12     6     7    1
    13     7     8   ar
    14     8     9   ar
    15     9    10   ar
    16    10    11   ar
    17    11    12   ar
    18    16    17   ar
    19    17    13   ar
    20     6     1   ar
    21    12     7   ar
    22    18    20    1
    23    18    21    1
@<TRIPOS>MOLECULE
*****
 21 23 0 0 0
SMALL
GASTEIGER

@<TRIPOS>ATOM
      1 C          60.8431   88.3809    9.3660 C.ar    1  UNL1        0.0537
      2 C          59.9696   89.2153    8.4767 C.ar    1  UNL1        0.1019
      3 N          59.0792   88.5546    7.4664 N.ar    1  UNL1       -0.2422
      4 C          59.0623   87.0596    7.3455 C.ar    1  UNL1        0.0989
      5 C          59.9358   86.2252    8.2348 C.ar    1  UNL1        0.0208
      6 C          60.8262   86.8859    9.2450 C.ar    1  UNL1        0.0075
      7 C          61.6997   86.0516   10.1344 C.ar    1  UNL1        0.0194
      8 C          62.7719   85.1891    9.5372 C.ar    1  UNL1        0.0031
      9 C          63.6454   84.3548   10.4265 C.ar    1  UNL1        0.0207
     10 C          63.4468   84.3829   11.9130 C.ar    1  UNL1        0.0989
     11 N          62.3746   85.2454   12.5103 N.ar    1  UNL1       -0.2423
     12 C          61.5011   86.0797   11.6209 C.ar    1  UNL1        0.0988
     13 C          62.7174   89.7320   12.4849 C.ar    1  UNL1        0.1385
     14 C          63.4901   90.3846   11.3771 C.ar    1  UNL1        0.0375
     15 C          62.8820   89.9579   10.0740 C.ar    1  UNL1        0.0404
     16 C          61.7335   89.0416   10.3763 C.ar    1  UNL1        0.1464
     17 O          61.6318   88.9020   11.8663 O.2     1  UNL1       -0.4563
     18 N          63.4186   91.2085   14.5044 N.3     1  UNL1       -0.3148
     19 C          62.9836   89.8829   13.9533 C.3     1  UNL1        0.1307
     20 H          63.5532   91.1300   15.5124 H       1  UNL1        0.1192
     21 H          62.7028   91.9087   14.3105 H       1  UNL1        0.1192
@<TRIPOS>BOND
     1    18    19    1
     2    19    13    1
     3    13    14   ar
     4    14    15   ar
     5    15    16   ar
     6    16     1    1
     7     1     2   ar
     8     2     3   ar
     9     3     4   ar
    10     4     5   ar
    11     5     6   ar
    12     6     7    1
    13     7     8   ar
    14     8     9   ar
    15     9    10   ar
    16    10    11   ar
    17    11    12   ar
    18    16    17   ar
    19    17    13   ar
    20     6     1   ar
    21    12     7   ar
    22    18    20    1
    23    18    21    1
@<TRIPOS>MOLECULE
*****
 21 23 0 0 0
SMALL
GASTEIGER

@<TRIPOS>ATOM
      1 C          64.6564   91.6319   12.4353 C.ar    1  UNL1        0.0537
      2 C          63.4348   91.0422   11.7950 C.ar    1  UNL1        0.1019
      3 N          62.5613   90.1016   12.5710 N.ar    1  UNL1       -0.2422
      4 C          62.9093   89.7507   13.9872 C.ar    1  UNL1        0.0989
      5 C          64.1308   90.3404   14.6275 C.ar    1  UNL1        0.0208
      6 C          65.0044   91.2809   13.8516 C.ar    1  UNL1        0.0075
      7 C          66.2261   91.8707   14.4918 C.ar    1  UNL1        0.0194
      8 C          67.5744   91.6615   13.8689 C.ar    1  UNL1        0.0031
      9 C          68.7960   92.2511   14.5091 C.ar    1  UNL1        0.0207
     10 C          68.6693   93.0500   15.7723 C.ar    1  UNL1        0.0989
     11 N          67.3209   93.2592   16.3953 N.ar    1  UNL1       -0.2423
     12 C          66.0993   92.6695   15.7550 C.ar    1  UNL1        0.0988
     13 C          67.1876   93.4374   10.1118 C.ar    1  UNL1        0.1385
     14 C          66.5612   94.6025   10.8189 C.ar    1  UNL1        0.0375
     15 C          65.5368   94.0680   11.7754 C.ar    1  UNL1        0.0404
     16 C          65.5300   92.5725   11.6594 C.ar    1  UNL1        0.1464
     17 O          66.5503   92.1827   10.6312 O.2     1  UNL1       -0.4563
     18 N          69.5594   92.7882    9.2733 N.3     1  UNL1       -0.3148
     19 C          68.2626   93.5135    9.0683 C.3     1  UNL1        0.1307
     20 H          70.1691   92.9486    8.4715 H       1  UNL1        0.1192
     21 H          69.3787   91.7888    9.3685 H       1  UNL1        0.1192
@<TRIPOS>BOND
     1    18    19    1
     2    19    13    1
     3    13    14   ar
     4    14    15   ar
     5    15    16   ar
     6    16     1    1
     7     1     2   ar
     8     2     3   ar
     9     3     4   ar
    10     4     5   ar
    11     5     6   ar
    12     6     7    1
    13     7     8   ar
    14     8     9   ar
    15     9    10   ar
    16    10    11   ar
    17    11    12   ar
    18    16    17   ar
    19    17    13   ar
    20     6     1   ar
    21    12     7   ar
    22    18    20    1
    23    18    21    1
@<TRIPOS>MOLECULE
*****
 21 23 0 0 0
SMALL
GASTEIGER

@<TRIPOS>ATOM
      1 C          64.5431   91.3145   12.8304 C.ar    1  UNL1        0.0537
      2 C          63.4970   90.3677   13.3394 C.ar    1  UNL1        0.1019
      3 N          62.4106   89.8875   12.4233 N.ar    1  UNL1       -0.2422
      4 C          62.3705   90.3540   10.9983 C.ar    1  UNL1        0.0989
      5 C          63.4166   91.3008   10.4893 C.ar    1  UNL1        0.0208
      6 C          64.5029   91.7810   11.4054 C.ar    1  UNL1        0.0075
      7 C          65.5492   92.7279   10.8964 C.ar    1  UNL1        0.0194
      8 C          66.7364   92.2009   10.1462 C.ar    1  UNL1        0.0031
      9 C          67.7826   93.1477    9.6372 C.ar    1  UNL1        0.0207
     10 C          67.6416   94.6215    9.8785 C.ar    1  UNL1        0.0989
     11 N          66.4544   95.1484   10.6287 N.ar    1  UNL1       -0.2423
     12 C          65.4082   94.2016   11.1377 C.ar    1  UNL1        0.0988
     13 C          67.8120   92.3890   14.6264 C.ar    1  UNL1        0.1385
     14 C          66.7904   92.6789   15.6860 C.ar    1  UNL1        0.0375
     15 C          65.4416   92.3116   15.1421 C.ar    1  UNL1        0.0404
     16 C          65.6295   91.7948   13.7465 C.ar    1  UNL1        0.1464
     17 O          67.0945   91.8427   13.4278 O.2     1  UNL1       -0.4563
     18 N          70.2159   92.0635   13.6963 N.3     1  UNL1       -0.3148
     19 C          69.2913   92.6073   14.7448 C.3     1  UNL1        0.1307
     20 H          71.1784   92.3031   13.9344 H       1  UNL1        0.1192
     21 H          69.9788   92.4686   12.7907 H       1  UNL1        0.1192
@<TRIPOS>BOND
     1    18    19    1
     2    19    13    1
     3    13    14   ar
     4    14    15   ar
     5    15    16   ar
     6    16     1    1
     7     1     2   ar
     8     2     3   ar
     9     3     4   ar
    10     4     5   ar
    11     5     6   ar
    12     6     7    1
    13     7     8   ar
    14     8     9   ar
    15     9    10   ar
    16    10    11   ar
    17    11    12   ar
    18    16    17   ar
    19    17    13   ar
    20     6     1   ar
    21    12     7   ar
    22    18    20    1
    23    18    21    1
@<TRIPOS>MOLECULE
*****
 21 23 0 0 0
SMALL
GASTEIGER

@<TRIPOS>ATOM
      1 C          62.8397   86.7004   11.6833 C.ar    1  UNL1        0.0537
      2 C          62.9438   88.1193   12.1582 C.ar    1  UNL1        0.1019
      3 N          63.5927   88.4234   13.4759 N.ar    1  UNL1       -0.2422
      4 C          64.1375   87.3085   14.3187 C.ar    1  UNL1        0.0989
      5 C          64.0333   85.8896   13.8437 C.ar    1  UNL1        0.0208
      6 C          63.3844   85.5855   12.5260 C.ar    1  UNL1        0.0075
      7 C          63.2803   84.1664   12.0510 C.ar    1  UNL1        0.0194
      8 C          64.1170   83.6984   10.8974 C.ar    1  UNL1        0.0031
      9 C          64.0128   82.2794   10.4224 C.ar    1  UNL1        0.0207
     10 C          63.0719   81.3285   11.1010 C.ar    1  UNL1        0.0989
     11 N          62.2352   81.7965   12.2546 N.ar    1  UNL1       -0.2423
     12 C          62.3394   83.2155   12.7296 C.ar    1  UNL1        0.0988
     13 C          60.5492   86.2240    8.5861 C.ar    1  UNL1        0.1385
     14 C          61.8351   85.6324    8.0894 C.ar    1  UNL1        0.0375
     15 C          62.8496   85.7389    9.1891 C.ar    1  UNL1        0.0404
     16 C          62.1907   86.3962   10.3655 C.ar    1  UNL1        0.1464
     17 O          60.7690   86.6960    9.9928 O.2     1  UNL1       -0.4563
     18 N          58.6340   87.6656    7.5843 N.3     1  UNL1       -0.3148
     19 C          59.2684   86.3256    7.8119 C.3     1  UNL1        0.1307
     20 H          57.7768   87.5485    7.0439 H       1  UNL1        0.1192
     21 H          59.2803   88.2650    7.0712 H       1  UNL1        0.1192
@<TRIPOS>BOND
     1    18    19    1
     2    19    13    1
     3    13    14   ar
     4    14    15   ar
     5    15    16   ar
     6    16     1    1
     7     1     2   ar
     8     2     3   ar
     9     3     4   ar
    10     4     5   ar
    11     5     6   ar
    12     6     7    1
    13     7     8   ar
    14     8     9   ar
    15     9    10   ar
    16    10    11   ar
    17    11    12   ar
    18    16    17   ar
    19    17    13   ar
    20     6     1   ar
    21    12     7   ar
    22    18    20    1
    23    18    21    1
