@<TRIPOS>MOLECULE
*****
 35 39 0 0 0
SMALL
GASTEIGER

@<TRIPOS>ATOM
      1 O          62.3398   90.8586   12.2028 O.2     1  UNL1       -0.2728
      2 C          62.8426   89.4605   12.4085 C.2     1  UNL1        0.2488
      3 N          62.3037   88.3388   11.5709 N.am    1  UNL1       -0.2779
      4 C          61.2620   88.6153   10.5277 C.3     1  UNL1        0.0935
      5 C          60.7231   87.4937    9.6901 C.3     1  UNL1        0.0219
      6 C          61.2259   86.0955    9.8958 C.3     1  UNL1        0.0078
      7 C          62.2676   85.8190   10.9390 C.3     1  UNL1        0.0419
      8 C          62.8065   86.9406   11.7766 C.3     1  UNL1        0.0953
      9 C          62.7704   84.4208   11.1447 C.ar    1  UNL1       -0.0209
     10 C          62.0205   83.4779   12.0383 C.ar    1  UNL1       -0.0042
     11 C          62.5233   82.0798   12.2440 C.ar    1  UNL1       -0.0003
     12 C          63.7761   81.6245   11.5561 C.ar    1  UNL1       -0.0000
     13 C          64.5260   82.5674   10.6626 C.ar    1  UNL1       -0.0003
     14 C          64.0232   83.9655   10.4569 C.ar    1  UNL1       -0.0042
     15 C          63.8843   89.1839   13.4517 C.3     1  UNL1        0.1943
     16 N          64.0499   90.1192   14.6127 N.ar    1  UNL1       -0.2839
     17 C          62.9867   90.2008   15.6676 C.ar    1  UNL1        0.2806
     18 O          61.7579   89.3470   15.5617 O.2     1  UNL1       -0.2652
     19 C          63.1523   91.1360   16.8286 C.ar    1  UNL1        0.1595
     20 N          64.3811   91.9898   16.9346 N.ar    1  UNL1       -0.2374
     21 C          65.4443   91.9082   15.8796 C.ar    1  UNL1        0.0982
     22 C          66.6731   92.7620   15.9856 C.ar    1  UNL1        0.0328
     23 C          67.7362   92.6804   14.9307 C.ar    1  UNL1        0.0698
     24 CL         68.9650   93.5342   15.0367 Cl      1  UNL1       -0.0813
     25 C          67.5707   91.7451   13.7696 C.ar    1  UNL1        0.0697
     26 CL         68.6338   91.6636   12.7147 Cl      1  UNL1       -0.0813
     27 C          66.3419   90.8914   13.6637 C.ar    1  UNL1        0.0310
     28 C          65.2787   90.9730   14.7187 C.ar    1  UNL1        0.0815
     29 C          63.8483   86.6641   12.8199 C.3     1  UNL1        0.0926
     30 N          63.6395   85.5606   13.8142 N.3     1  UNL1       -0.2670
     31 C          64.6849   84.4988   13.9867 C.3     1  UNL1        0.1047
     32 C          64.4761   83.3953   14.9810 C.3     1  UNL1        0.1595
     33 O          63.2220   83.3536   15.8028 O.3     1  UNL1       -0.3508
     34 C          62.1765   84.4154   15.6303 C.3     1  UNL1        0.1595
     35 C          62.3853   85.5189   14.6360 C.3     1  UNL1        0.1047
@<TRIPOS>BOND
     1     1     2    2
     2     2    15    1
     3    15    16    1
     4    16    17   ar
     5    17    18    2
     6    17    19   ar
     7    19    20   ar
     8    20    21   ar
     9    21    22   ar
    10    22    23   ar
    11    23    24    1
    12    23    25   ar
    13    25    26    1
    14    25    27   ar
    15    27    28   ar
    16     2     3   am
    17     3     4    1
    18     4     5    1
    19     5     6    1
    20     6     7    1
    21     7     9    1
    22     9    10   ar
    23    10    11   ar
    24    11    12   ar
    25    12    13   ar
    26    13    14   ar
    27     7     8    1
    28     8    29    1
    29    29    30    1
    30    30    31    1
    31    31    32    1
    32    32    33    1
    33    33    34    1
    34    34    35    1
    35    28    16   ar
    36     8     3    1
    37    35    30    1
    38    28    21   ar
    39    14     9   ar
@<TRIPOS>MOLECULE
*****
 35 39 0 0 0
SMALL
GASTEIGER

@<TRIPOS>ATOM
      1 O          63.5094   91.2469   15.6635 O.2     1  UNL1       -0.2728
      2 C          63.6684   89.9454   14.9350 C.2     1  UNL1        0.2488
      3 N          63.4339   88.6499   15.6539 N.am    1  UNL1       -0.2779
      4 C          63.0405   88.6560   17.1014 C.3     1  UNL1        0.0935
      5 C          62.8061   87.3605   17.8202 C.3     1  UNL1        0.0219
      6 C          62.9651   86.0590   17.0917 C.3     1  UNL1        0.0078
      7 C          63.3585   86.0530   15.6442 C.3     1  UNL1        0.0419
      8 C          63.5929   87.3484   14.9254 C.3     1  UNL1        0.0953
      9 C          63.5175   84.7514   14.9157 C.ar    1  UNL1       -0.0209
     10 C          64.8302   84.4042   14.2784 C.ar    1  UNL1       -0.0042
     11 C          64.9891   83.1027   13.5498 C.ar    1  UNL1       -0.0003
     12 C          63.8354   82.1484   13.4586 C.ar    1  UNL1       -0.0000
     13 C          62.5228   82.4957   14.0959 C.ar    1  UNL1       -0.0003
     14 C          62.3638   83.7972   14.8244 C.ar    1  UNL1       -0.0042
     15 C          64.0618   89.9393   13.4875 C.3     1  UNL1        0.1943
     16 N          64.6261   91.1787   12.8584 N.ar    1  UNL1       -0.2839
     17 C          64.1412   91.6229   11.5104 C.ar    1  UNL1        0.2806
     18 O          63.0920   90.8279   10.7913 O.2     1  UNL1       -0.2652
     19 C          64.7055   92.8622   10.8813 C.ar    1  UNL1        0.1595
     20 N          65.7547   93.6572   11.6004 N.ar    1  UNL1       -0.2374
     21 C          66.2396   93.2130   12.9485 C.ar    1  UNL1        0.0982
     22 C          67.2888   94.0080   13.6676 C.ar    1  UNL1        0.0328
     23 C          67.7738   93.5637   15.0157 C.ar    1  UNL1        0.0698
     24 CL         68.8230   94.3587   15.7348 Cl      1  UNL1       -0.0813
     25 C          67.2095   92.3244   15.6448 C.ar    1  UNL1        0.0697
     26 CL         67.6944   91.8801   16.9929 Cl      1  UNL1       -0.0813
     27 C          66.1603   91.5293   14.9257 C.ar    1  UNL1        0.0310
     28 C          65.6753   91.9737   13.5775 C.ar    1  UNL1        0.0815
     29 C          63.9864   87.3424   13.4778 C.3     1  UNL1        0.0926
     30 N          62.9581   87.0619   12.4223 N.3     1  UNL1       -0.2670
     31 C          62.8407   85.6861   11.8364 C.3     1  UNL1        0.1047
     32 C          61.8125   85.4057   10.7809 C.3     1  UNL1        0.1595
     33 O          60.9017   86.5011   10.3113 O.3     1  UNL1       -0.3508
     34 C          61.0191   87.8770   10.8973 C.3     1  UNL1        0.1595
     35 C          62.0473   88.1574   11.9528 C.3     1  UNL1        0.1047
@<TRIPOS>BOND
     1     1     2    2
     2     2    15    1
     3    15    16    1
     4    16    17   ar
     5    17    18    2
     6    17    19   ar
     7    19    20   ar
     8    20    21   ar
     9    21    22   ar
    10    22    23   ar
    11    23    24    1
    12    23    25   ar
    13    25    26    1
    14    25    27   ar
    15    27    28   ar
    16     2     3   am
    17     3     4    1
    18     4     5    1
    19     5     6    1
    20     6     7    1
    21     7     9    1
    22     9    10   ar
    23    10    11   ar
    24    11    12   ar
    25    12    13   ar
    26    13    14   ar
    27     7     8    1
    28     8    29    1
    29    29    30    1
    30    30    31    1
    31    31    32    1
    32    32    33    1
    33    33    34    1
    34    34    35    1
    35    28    16   ar
    36     8     3    1
    37    35    30    1
    38    28    21   ar
    39    14     9   ar
@<TRIPOS>MOLECULE
*****
 35 39 0 0 0
SMALL
GASTEIGER

@<TRIPOS>ATOM
      1 O          57.6261   92.4867   -2.4542 O.2     1  UNL1       -0.2728
      2 C          58.7369   93.4713   -2.2377 C.2     1  UNL1        0.2488
      3 N          59.8046   93.1863   -1.2234 N.am    1  UNL1       -0.2779
      4 C          59.7615   91.9169   -0.4255 C.3     1  UNL1        0.0935
      5 C          60.8291   91.6320    0.5889 C.3     1  UNL1        0.0219
      6 C          61.9399   92.6165    0.8053 C.3     1  UNL1        0.0078
      7 C          61.9831   93.8859    0.0074 C.3     1  UNL1        0.0419
      8 C          60.9154   94.1708   -1.0069 C.3     1  UNL1        0.0953
      9 C          63.0939   94.8704    0.2238 C.ar    1  UNL1       -0.0209
     10 C          64.2960   94.8540   -0.6732 C.ar    1  UNL1       -0.0042
     11 C          65.4068   95.8386   -0.4568 C.ar    1  UNL1       -0.0003
     12 C          65.3155   96.8395    0.6567 C.ar    1  UNL1       -0.0000
     13 C          64.1134   96.8559    1.5537 C.ar    1  UNL1       -0.0003
     14 C          63.0026   95.8714    1.3373 C.ar    1  UNL1       -0.0042
     15 C          58.7801   94.7407   -3.0356 C.3     1  UNL1        0.1943
     16 N          57.8326   94.9388   -4.1816 N.ar    1  UNL1       -0.2839
     17 C          58.3012   94.7169   -5.5891 C.ar    1  UNL1        0.2806
     18 O          59.7172   94.2968   -5.8508 O.2     1  UNL1       -0.2652
     19 C          57.3537   94.9151   -6.7350 C.ar    1  UNL1        0.1595
     20 N          55.9377   95.3352   -6.4733 N.ar    1  UNL1       -0.2374
     21 C          55.4692   95.5571   -5.0658 C.ar    1  UNL1        0.0982
     22 C          54.0532   95.9772   -4.8041 C.ar    1  UNL1        0.0328
     23 C          53.5846   96.1991   -3.3966 C.ar    1  UNL1        0.0698
     24 CL         52.1686   96.6192   -3.1349 Cl      1  UNL1       -0.0813
     25 C          54.5321   96.0009   -2.2507 C.ar    1  UNL1        0.0697
     26 CL         54.0635   96.2228   -0.8431 Cl      1  UNL1       -0.0813
     27 C          55.9481   95.5808   -2.5123 C.ar    1  UNL1        0.0310
     28 C          56.4166   95.3589   -3.9199 C.ar    1  UNL1        0.0815
     29 C          60.9585   95.4403   -1.8049 C.3     1  UNL1        0.0926
     30 N          61.7231   95.4899   -3.0945 N.3     1  UNL1       -0.2670
     31 C          61.8299   96.7790   -3.8539 C.3     1  UNL1        0.1047
     32 C          62.5944   96.8286   -5.1435 C.3     1  UNL1        0.1595
     33 O          63.2521   95.5892   -5.6736 O.3     1  UNL1       -0.3508
     34 C          63.1453   94.3000   -4.9142 C.3     1  UNL1        0.1595
     35 C          62.3808   94.2504   -3.6246 C.3     1  UNL1        0.1047
@<TRIPOS>BOND
     1     1     2    2
     2     2    15    1
     3    15    16    1
     4    16    17   ar
     5    17    18    2
     6    17    19   ar
     7    19    20   ar
     8    20    21   ar
     9    21    22   ar
    10    22    23   ar
    11    23    24    1
    12    23    25   ar
    13    25    26    1
    14    25    27   ar
    15    27    28   ar
    16     2     3   am
    17     3     4    1
    18     4     5    1
    19     5     6    1
    20     6     7    1
    21     7     9    1
    22     9    10   ar
    23    10    11   ar
    24    11    12   ar
    25    12    13   ar
    26    13    14   ar
    27     7     8    1
    28     8    29    1
    29    29    30    1
    30    30    31    1
    31    31    32    1
    32    32    33    1
    33    33    34    1
    34    34    35    1
    35    28    16   ar
    36     8     3    1
    37    35    30    1
    38    28    21   ar
    39    14     9   ar
@<TRIPOS>MOLECULE
*****
 35 39 0 0 0
SMALL
GASTEIGER

@<TRIPOS>ATOM
      1 O          58.3055   91.9969   -1.1995 O.2     1  UNL1       -0.2728
      2 C          59.4194   92.9996   -1.2629 C.2     1  UNL1        0.2488
      3 N          60.5546   92.9223   -0.2854 N.am    1  UNL1       -0.2779
      4 C          60.5759   91.8425    0.7554 C.3     1  UNL1        0.0935
      5 C          61.7111   91.7653    1.7328 C.3     1  UNL1        0.0219
      6 C          62.8249   92.7680    1.6694 C.3     1  UNL1        0.0078
      7 C          62.8036   93.8478    0.6286 C.3     1  UNL1        0.0419
      8 C          61.6684   93.9250   -0.3488 C.3     1  UNL1        0.0953
      9 C          63.9174   94.8505    0.5652 C.ar    1  UNL1       -0.0209
     10 C          64.2138   95.7183    1.7522 C.ar    1  UNL1       -0.0042
     11 C          65.3276   96.7210    1.6887 C.ar    1  UNL1       -0.0003
     12 C          66.1450   96.8559    0.4383 C.ar    1  UNL1       -0.0000
     13 C          65.8486   95.9881   -0.7487 C.ar    1  UNL1       -0.0003
     14 C          64.7348   94.9854   -0.6853 C.ar    1  UNL1       -0.0042
     15 C          59.3980   94.0794   -2.3037 C.3     1  UNL1        0.1943
     16 N          58.1378   94.8530   -2.5562 N.ar    1  UNL1       -0.2839
     17 C          57.6703   95.8712   -1.5590 C.ar    1  UNL1        0.2806
     18 O          58.4628   96.1160   -0.3092 O.2     1  UNL1       -0.2652
     19 C          56.4102   96.6446   -1.8115 C.ar    1  UNL1        0.1595
     20 N          55.6176   96.3999   -3.0613 N.ar    1  UNL1       -0.2374
     21 C          56.0852   95.3816   -4.0585 C.ar    1  UNL1        0.0982
     22 C          55.2926   95.1368   -5.3083 C.ar    1  UNL1        0.0328
     23 C          55.7602   94.1186   -6.3055 C.ar    1  UNL1        0.0698
     24 CL         54.9676   93.8738   -7.5553 Cl      1  UNL1       -0.0813
     25 C          57.0203   93.3451   -6.0530 C.ar    1  UNL1        0.0697
     26 CL         57.4879   92.3268   -7.0503 Cl      1  UNL1       -0.0813
     27 C          57.8129   93.5899   -4.8033 C.ar    1  UNL1        0.0310
     28 C          57.3453   94.6082   -3.8060 C.ar    1  UNL1        0.0815
     29 C          61.6470   95.0049   -1.3897 C.3     1  UNL1        0.0926
     30 N          62.3483   94.7981   -2.6995 N.3     1  UNL1       -0.2670
     31 C          62.7588   93.4183   -3.1207 C.3     1  UNL1        0.1047
     32 C          63.4600   93.2115   -4.4305 C.3     1  UNL1        0.1595
     33 O          63.7507   94.3845   -5.3190 O.3     1  UNL1       -0.3508
     34 C          63.3402   95.7644   -4.8978 C.3     1  UNL1        0.1595
     35 C          62.6390   95.9712   -3.5880 C.3     1  UNL1        0.1047
@<TRIPOS>BOND
     1     1     2    2
     2     2    15    1
     3    15    16    1
     4    16    17   ar
     5    17    18    2
     6    17    19   ar
     7    19    20   ar
     8    20    21   ar
     9    21    22   ar
    10    22    23   ar
    11    23    24    1
    12    23    25   ar
    13    25    26    1
    14    25    27   ar
    15    27    28   ar
    16     2     3   am
    17     3     4    1
    18     4     5    1
    19     5     6    1
    20     6     7    1
    21     7     9    1
    22     9    10   ar
    23    10    11   ar
    24    11    12   ar
    25    12    13   ar
    26    13    14   ar
    27     7     8    1
    28     8    29    1
    29    29    30    1
    30    30    31    1
    31    31    32    1
    32    32    33    1
    33    33    34    1
    34    34    35    1
    35    28    16   ar
    36     8     3    1
    37    35    30    1
    38    28    21   ar
    39    14     9   ar
@<TRIPOS>MOLECULE
*****
 35 39 0 0 0
SMALL
GASTEIGER

@<TRIPOS>ATOM
      1 O          61.0121   91.4984   11.5249 O.2     1  UNL1       -0.2728
      2 C          61.8549   90.2783   11.7511 C.2     1  UNL1        0.2488
      3 N          61.4029   88.9471   11.2279 N.am    1  UNL1       -0.2779
      4 C          60.1083   88.8360   10.4786 C.3     1  UNL1        0.0935
      5 C          59.6564   87.5048    9.9555 C.3     1  UNL1        0.0219
      6 C          60.4991   86.2847   10.1817 C.3     1  UNL1        0.0078
      7 C          61.7938   86.3958   10.9310 C.3     1  UNL1        0.0419
      8 C          62.2457   87.7270   11.4541 C.3     1  UNL1        0.0953
      9 C          62.6366   85.1757   11.1572 C.ar    1  UNL1       -0.0209
     10 C          62.6182   84.4881   12.4902 C.ar    1  UNL1       -0.0042
     11 C          63.4609   83.2680   12.7164 C.ar    1  UNL1       -0.0003
     12 C          64.3221   82.7356   11.6096 C.ar    1  UNL1       -0.0000
     13 C          64.3405   83.4233   10.2767 C.ar    1  UNL1       -0.0003
     14 C          63.4977   84.6433   10.0505 C.ar    1  UNL1       -0.0042
     15 C          63.1495   90.3895   12.5004 C.3     1  UNL1        0.1943
     16 N          64.1944   91.3677   12.0514 N.ar    1  UNL1       -0.2839
     17 C          64.3177   91.7192   10.5985 C.ar    1  UNL1        0.2806
     18 O          63.3962   91.0926    9.5944 O.2     1  UNL1       -0.2652
     19 C          65.3625   92.6974   10.1496 C.ar    1  UNL1        0.1595
     20 N          66.2840   93.3240   11.1537 N.ar    1  UNL1       -0.2374
     21 C          66.1607   92.9724   12.6067 C.ar    1  UNL1        0.0982
     22 C          67.0822   93.5990   13.6108 C.ar    1  UNL1        0.0328
     23 C          66.9589   93.2474   15.0638 C.ar    1  UNL1        0.0698
     24 CL         67.8804   93.8740   16.0679 Cl      1  UNL1       -0.0813
     25 C          65.9140   92.2692   15.5127 C.ar    1  UNL1        0.0697
     26 CL         65.7907   91.9177   16.9656 Cl      1  UNL1       -0.0813
     27 C          64.9925   91.6426   14.5086 C.ar    1  UNL1        0.0310
     28 C          65.1159   91.9943   13.0555 C.ar    1  UNL1        0.0815
     29 C          63.5404   87.8382   12.2035 C.3     1  UNL1        0.0926
     30 N          63.5725   87.6018   13.6844 N.3     1  UNL1       -0.2670
     31 C          63.9914   86.2655   14.2217 C.3     1  UNL1        0.1047
     32 C          64.0235   86.0291   15.7026 C.3     1  UNL1        0.1595
     33 O          63.6367   87.1291   16.6462 O.3     1  UNL1       -0.3508
     34 C          63.2178   88.4655   16.1089 C.3     1  UNL1        0.1595
     35 C          63.1857   88.7019   14.6280 C.3     1  UNL1        0.1047
@<TRIPOS>BOND
     1     1     2    2
     2     2    15    1
     3    15    16    1
     4    16    17   ar
     5    17    18    2
     6    17    19   ar
     7    19    20   ar
     8    20    21   ar
     9    21    22   ar
    10    22    23   ar
    11    23    24    1
    12    23    25   ar
    13    25    26    1
    14    25    27   ar
    15    27    28   ar
    16     2     3   am
    17     3     4    1
    18     4     5    1
    19     5     6    1
    20     6     7    1
    21     7     9    1
    22     9    10   ar
    23    10    11   ar
    24    11    12   ar
    25    12    13   ar
    26    13    14   ar
    27     7     8    1
    28     8    29    1
    29    29    30    1
    30    30    31    1
    31    31    32    1
    32    32    33    1
    33    33    34    1
    34    34    35    1
    35    28    16   ar
    36     8     3    1
    37    35    30    1
    38    28    21   ar
    39    14     9   ar
@<TRIPOS>MOLECULE
*****
 35 39 0 0 0
SMALL
GASTEIGER

@<TRIPOS>ATOM
      1 O          61.6292   89.8715   14.1030 O.2     1  UNL1       -0.2728
      2 C          63.0403   90.2863   13.8085 C.2     1  UNL1        0.2488
      3 N          63.8572   90.9695   14.8648 N.am    1  UNL1       -0.2779
      4 C          63.2630   91.2380   16.2157 C.3     1  UNL1        0.0935
      5 C          64.0799   91.9212   17.2720 C.3     1  UNL1        0.0219
      6 C          65.4910   92.3360   16.9774 C.3     1  UNL1        0.0078
      7 C          66.0852   92.0676   15.6266 C.3     1  UNL1        0.0419
      8 C          65.2683   91.3844   14.5703 C.3     1  UNL1        0.0953
      9 C          67.4963   92.4824   15.3320 C.ar    1  UNL1       -0.0209
     10 C          68.3401   91.6630   14.4012 C.ar    1  UNL1       -0.0042
     11 C          69.7512   92.0778   14.1066 C.ar    1  UNL1       -0.0003
     12 C          70.3184   93.3120   14.7429 C.ar    1  UNL1       -0.0000
     13 C          69.4746   94.1314   15.6737 C.ar    1  UNL1       -0.0003
     14 C          68.0635   93.7166   15.9683 C.ar    1  UNL1       -0.0042
     15 C          63.6344   90.0178   12.4576 C.3     1  UNL1        0.1943
     16 N          62.8874   89.1799   11.4627 N.ar    1  UNL1       -0.2839
     17 C          62.2287   89.8276   10.2810 C.ar    1  UNL1        0.2806
     18 O          62.3169   91.3133   10.0941 O.2     1  UNL1       -0.2652
     19 C          61.4817   88.9896    9.2861 C.ar    1  UNL1        0.1595
     20 N          61.3934   87.5039    9.4730 N.ar    1  UNL1       -0.2374
     21 C          62.0521   86.8562   10.6547 C.ar    1  UNL1        0.0982
     22 C          61.9638   85.3705   10.8416 C.ar    1  UNL1        0.0328
     23 C          62.6226   84.7228   12.0233 C.ar    1  UNL1        0.0698
     24 CL         62.5343   83.2371   12.2102 Cl      1  UNL1       -0.0813
     25 C          63.3696   85.5608   13.0182 C.ar    1  UNL1        0.0697
     26 CL         64.0283   84.9130   14.1999 Cl      1  UNL1       -0.0813
     27 C          63.4579   87.0465   12.8314 C.ar    1  UNL1        0.0310
     28 C          62.7991   87.6942   11.6496 C.ar    1  UNL1        0.0815
     29 C          65.8624   91.1159   13.2193 C.3     1  UNL1        0.0926
     30 N          66.2413   92.2597   12.3259 N.3     1  UNL1       -0.2670
     31 C          67.0370   92.0064   11.0798 C.3     1  UNL1        0.1047
     32 C          67.4159   93.1502   10.1864 C.3     1  UNL1        0.1595
     33 O          66.9991   94.5473   10.5391 O.3     1  UNL1       -0.3508
     34 C          66.2034   94.8006   11.7852 C.3     1  UNL1        0.1595
     35 C          65.8245   93.6568   12.6786 C.3     1  UNL1        0.1047
@<TRIPOS>BOND
     1     1     2    2
     2     2    15    1
     3    15    16    1
     4    16    17   ar
     5    17    18    2
     6    17    19   ar
     7    19    20   ar
     8    20    21   ar
     9    21    22   ar
    10    22    23   ar
    11    23    24    1
    12    23    25   ar
    13    25    26    1
    14    25    27   ar
    15    27    28   ar
    16     2     3   am
    17     3     4    1
    18     4     5    1
    19     5     6    1
    20     6     7    1
    21     7     9    1
    22     9    10   ar
    23    10    11   ar
    24    11    12   ar
    25    12    13   ar
    26    13    14   ar
    27     7     8    1
    28     8    29    1
    29    29    30    1
    30    30    31    1
    31    31    32    1
    32    32    33    1
    33    33    34    1
    34    34    35    1
    35    28    16   ar
    36     8     3    1
    37    35    30    1
    38    28    21   ar
    39    14     9   ar
