@<TRIPOS>MOLECULE
*****
 44 45 0 0 0
SMALL
GASTEIGER

@<TRIPOS>ATOM
      1 O          59.9768   90.1550    9.9697 O.3     1  UNL1        0.0000
      2 P          60.1420   89.9552   11.4471 P.3     1  UNL1        0.0000
      3 O          58.9517   90.8326   11.6988 O.2     1  UNL1        0.0000
      4 O          60.3071   89.7555   12.9246 O.3     1  UNL1        0.0000
      5 H          59.6170   90.2473   13.3965 H       1  UNL1        0.0000
      6 C          61.3323   89.0778   11.1954 C.3     1  UNL1        0.0000
      7 O          62.6979   89.5248   11.6256 O.3     1  UNL1        0.0000
      8 C          63.2340   91.2922    9.7983 C.3     1  UNL1        0.0000
      9 C          63.1970   90.8863   11.2419 C.3     1  UNL1        0.0000
     10 C          63.6592   91.8420   12.3017 C.3     1  UNL1        0.0000
     11 N          65.1261   92.0550   12.5315 N.ar    1  UNL1        0.0000
     12 C          66.1824   92.1348   11.4695 C.ar    1  UNL1        0.0000
     13 N          67.5033   92.3548   12.1453 N.ar    1  UNL1        0.0000
     14 C          67.2634   92.4109   13.6250 C.ar    1  UNL1        0.0000
     15 C          68.1930   92.6067   14.7858 C.ar    1  UNL1        0.0000
     16 N          69.6622   92.7920   14.5471 N.pl3   1  UNL1        0.0000
     17 N          67.6533   92.6173   16.1852 N.ar    1  UNL1        0.0000
     18 C          66.1840   92.4321   16.4239 C.ar    1  UNL1        0.0000
     19 N          65.2545   92.2362   15.2631 N.ar    1  UNL1        0.0000
     20 C          65.7942   92.2256   13.8636 C.ar    1  UNL1        0.0000
     21 H          70.0165   92.7850   13.6285 H       1  UNL1        0.0000
     22 H          70.2723   92.9205   15.3090 H       1  UNL1        0.0000
     23 C          60.4433   89.0980    9.0131 C.3     1  UNL1        0.0000
     24 C          59.6407   88.7924    7.7833 C.3     1  UNL1        0.0000
     25 C          59.2979   87.3718    7.4453 C.3     1  UNL1        0.0000
     26 C          59.8970   86.2471    8.2365 C.3     1  UNL1        0.0000
     27 C          61.2549   85.7192    7.8797 C.3     1  UNL1        0.0000
     28 C          62.4138   85.9431    8.8054 C.3     1  UNL1        0.0000
     29 C          62.2392   85.7590   10.2838 C.3     1  UNL1        0.0000
     30 C          62.8113   84.5494   10.9617 C.3     1  UNL1        0.0000
     31 C          63.8459   83.7173   10.2637 C.3     1  UNL1        0.0000
     32 C          64.1817   82.3496   10.7799 C.3     1  UNL1        0.0000
     33 C          63.0835   81.3933   11.1397 C.3     1  UNL1        0.0000
     34 C          62.8887   80.9780   12.5678 C.3     1  UNL1        0.0000
     35 C          62.0006   81.7839   13.4688 C.3     1  UNL1        0.0000
     36 C          62.5979   82.7955   14.4015 C.3     1  UNL1        0.0000
     37 C          64.0866   82.8764   14.5665 C.3     1  UNL1        0.0000
     38 C          64.8209   84.1167   14.1512 C.3     1  UNL1        0.0000
     39 C          64.4193   85.4490   14.7113 C.1     1  UNL1        0.0000
     40 C          64.0177   86.7814   15.2713 C.1     1  UNL1        0.0000
     41 SI         63.6162   88.1138   15.8312 Si      1  UNL1        0.0000
     42 C          62.9918   87.4297   17.0112 C.3     1  UNL1        0.0000
     43 C          64.2405   88.7979   14.6513 C.3     1  UNL1        0.0000
     44 C          63.2145   89.4461   16.3912 C.3     1  UNL1        0.0000
@<TRIPOS>BOND
     1     9     8    1
     2     9    10    1
     3    10    11    1
     4    11    12   ar
     5    12    13   ar
     6    13    14   ar
     7    14    15   ar
     8    15    16    1
     9    15    17   ar
    10    17    18   ar
    11    18    19   ar
    12    19    20   ar
    13     9     7    1
    14     7     6    1
    15     6     2    1
    16     2     3    2
    17     2     4    1
    18     2     1    1
    19     1    23    1
    20    23    24    1
    21    24    25    1
    22    25    26    1
    23    26    27    1
    24    27    28    1
    25    28    29    1
    26    29    30    1
    27    30    31    1
    28    31    32    1
    29    32    33    1
    30    33    34    1
    31    34    35    1
    32    35    36    1
    33    36    37    1
    34    37    38    1
    35    38    39    1
    36    39    40    3
    37    40    41    1
    38    41    42    1
    39    41    43    1
    40    41    44    1
    41    20    11   ar
    42    20    14   ar
    43    16    21    1
    44    16    22    1
    45     4     5    1
@<TRIPOS>MOLECULE
*****
 44 45 0 0 0
SMALL
GASTEIGER

@<TRIPOS>ATOM
      1 O          63.4906   88.9473   14.6596 O.3     1  UNL1        0.0000
      2 P          63.4798   90.0645   15.6604 P.3     1  UNL1        0.0000
      3 O          62.4132   89.3551   16.4409 O.2     1  UNL1        0.0000
      4 O          63.4690   91.1818   16.6612 O.3     1  UNL1        0.0000
      5 H          62.8164   90.9901   17.3528 H       1  UNL1        0.0000
      6 C          64.5463   90.7740   14.8799 C.3     1  UNL1        0.0000
      7 O          65.2521   91.9553   15.4767 O.3     1  UNL1        0.0000
      8 C          67.6172   92.8197   16.1164 C.3     1  UNL1        0.0000
      9 C          66.6739   92.2487   15.0994 C.3     1  UNL1        0.0000
     10 C          67.1525   91.9712   13.7051 C.3     1  UNL1        0.0000
     11 N          66.8547   92.9436   12.6024 N.ar    1  UNL1        0.0000
     12 C          65.9627   94.1453   12.7037 C.ar    1  UNL1        0.0000
     13 N          65.9534   94.8293   11.3688 N.ar    1  UNL1        0.0000
     14 C          66.8396   94.0504   10.4425 C.ar    1  UNL1        0.0000
     15 C          67.2112   94.2518    9.0033 C.ar    1  UNL1        0.0000
     16 N          66.6542   95.4172    8.2409 N.pl3   1  UNL1        0.0000
     17 N          68.1399   93.2877    8.3266 N.ar    1  UNL1        0.0000
     18 C          68.6970   92.1222    9.0891 C.ar    1  UNL1        0.0000
     19 N          68.3253   91.9208   10.5283 N.ar    1  UNL1        0.0000
     20 C          67.3966   92.8849   11.2050 C.ar    1  UNL1        0.0000
     21 H          66.0446   96.0500    8.6850 H       1  UNL1        0.0000
     22 H          66.8981   95.5494    7.2963 H       1  UNL1        0.0000
     23 C          64.4892   87.8354   14.7875 C.3     1  UNL1        0.0000
     24 C          64.1609   86.4685   14.2644 C.3     1  UNL1        0.0000
     25 C          64.9662   85.2828   14.7066 C.3     1  UNL1        0.0000
     26 C          64.7180   83.9366   14.0933 C.3     1  UNL1        0.0000
     27 C          63.4215   83.2254   14.3446 C.3     1  UNL1        0.0000
     28 C          63.1974   81.8533   13.7816 C.3     1  UNL1        0.0000
     29 C          62.4177   81.6818   12.5115 C.3     1  UNL1        0.0000
     30 C          63.1377   81.4895   11.2097 C.3     1  UNL1        0.0000
     31 C          64.1321   82.5115   10.7445 C.3     1  UNL1        0.0000
     32 C          63.6570   83.8122   10.1679 C.3     1  UNL1        0.0000
     33 C          62.7435   84.6963   10.9640 C.3     1  UNL1        0.0000
     34 C          61.9628   85.7787   10.2792 C.3     1  UNL1        0.0000
     35 C          62.1350   86.0112    8.8075 C.3     1  UNL1        0.0000
     36 C          60.9563   85.8962    7.8869 C.3     1  UNL1        0.0000
     37 C          59.6906   86.6410    8.1925 C.3     1  UNL1        0.0000
     38 C          59.6992   88.1395    8.2569 C.3     1  UNL1        0.0000
     39 C          60.7202   88.8484    9.0965 C.1     1  UNL1        0.0000
     40 C          61.7414   89.5573    9.9361 C.1     1  UNL1        0.0000
     41 SI         62.7624   90.2662   10.7757 Si      1  UNL1        0.0000
     42 C          62.8509   91.3556    9.7482 C.3     1  UNL1        0.0000
     43 C          62.6739   89.1769   11.8031 C.3     1  UNL1        0.0000
     44 C          63.7835   90.9752   11.6152 C.3     1  UNL1        0.0000
@<TRIPOS>BOND
     1     9     8    1
     2     9    10    1
     3    10    11    1
     4    11    12   ar
     5    12    13   ar
     6    13    14   ar
     7    14    15   ar
     8    15    16    1
     9    15    17   ar
    10    17    18   ar
    11    18    19   ar
    12    19    20   ar
    13     9     7    1
    14     7     6    1
    15     6     2    1
    16     2     3    2
    17     2     4    1
    18     2     1    1
    19     1    23    1
    20    23    24    1
    21    24    25    1
    22    25    26    1
    23    26    27    1
    24    27    28    1
    25    28    29    1
    26    29    30    1
    27    30    31    1
    28    31    32    1
    29    32    33    1
    30    33    34    1
    31    34    35    1
    32    35    36    1
    33    36    37    1
    34    37    38    1
    35    38    39    1
    36    39    40    3
    37    40    41    1
    38    41    42    1
    39    41    43    1
    40    41    44    1
    41    20    11   ar
    42    20    14   ar
    43    16    21    1
    44    16    22    1
    45     4     5    1
@<TRIPOS>MOLECULE
*****
 44 45 0 0 0
SMALL
GASTEIGER

@<TRIPOS>ATOM
      1 O          63.8556   87.6902   14.2944 O.3     1  UNL1        0.0000
      2 P          63.5916   89.0695   14.8214 P.3     1  UNL1        0.0000
      3 O          63.2322   88.4902   16.1575 O.2     1  UNL1        0.0000
      4 O          63.3276   90.4488   15.3484 O.3     1  UNL1        0.0000
      5 H          63.0515   90.3929   16.2767 H       1  UNL1        0.0000
      6 C          63.9510   89.6488   13.4853 C.3     1  UNL1        0.0000
      7 O          62.9131   90.3683   12.6760 O.3     1  UNL1        0.0000
      8 C          62.9069   90.3989   10.0781 C.3     1  UNL1        0.0000
      9 C          63.2940   91.0278   11.3837 C.3     1  UNL1        0.0000
     10 C          64.0619   92.3163   11.3971 C.3     1  UNL1        0.0000
     11 N          65.5102   92.3222   11.7875 N.ar    1  UNL1        0.0000
     12 C          66.6771   92.2609   10.8470 C.ar    1  UNL1        0.0000
     13 N          67.9339   92.2913   11.6652 N.ar    1  UNL1        0.0000
     14 C          67.5438   92.3713   13.1114 C.ar    1  UNL1        0.0000
     15 C          68.3590   92.4293   14.3691 C.ar    1  UNL1        0.0000
     16 N          69.8570   92.4102   14.2936 N.pl3   1  UNL1        0.0000
     17 N          67.6762   92.5064   15.7025 N.ar    1  UNL1        0.0000
     18 C          66.1782   92.5255   15.7780 C.ar    1  UNL1        0.0000
     19 N          65.3630   92.4676   14.5203 N.ar    1  UNL1        0.0000
     20 C          66.0458   92.3905   13.1869 C.ar    1  UNL1        0.0000
     21 H          70.3051   92.3596   13.4184 H       1  UNL1        0.0000
     22 H          70.3920   92.4482   15.1191 H       1  UNL1        0.0000
     23 C          64.4947   86.6595   15.1771 C.3     1  UNL1        0.0000
     24 C          64.3964   85.2049   14.8244 C.3     1  UNL1        0.0000
     25 C          63.0766   84.4981   14.9176 C.3     1  UNL1        0.0000
     26 C          63.0299   82.9995   14.9609 C.3     1  UNL1        0.0000
     27 C          61.9085   82.2643   14.2886 C.3     1  UNL1        0.0000
     28 C          62.1974   81.0387   13.4735 C.3     1  UNL1        0.0000
     29 C          62.9555   81.1567   12.1845 C.3     1  UNL1        0.0000
     30 C          64.3337   81.7488   12.1764 C.3     1  UNL1        0.0000
     31 C          64.6000   83.0187   11.4239 C.3     1  UNL1        0.0000
     32 C          63.8630   83.3036   10.1488 C.3     1  UNL1        0.0000
     33 C          63.1077   84.5898    9.9906 C.3     1  UNL1        0.0000
     34 C          62.9599   85.2107    8.6332 C.3     1  UNL1        0.0000
     35 C          61.7600   86.0549    8.3211 C.3     1  UNL1        0.0000
     36 C          61.4263   87.2334    9.1870 C.3     1  UNL1        0.0000
     37 C          60.0588   87.8467    9.1245 C.3     1  UNL1        0.0000
     38 C          59.2609   87.7726    7.8565 C.3     1  UNL1        0.0000
     39 C          59.2632   88.9283    6.9003 C.1     1  UNL1        0.0000
     40 C          59.2654   90.0841    5.9441 C.1     1  UNL1        0.0000
     41 SI         59.2675   91.2397    4.9878 Si      1  UNL1        0.0000
     42 C          60.7597   91.1400    4.8707 C.3     1  UNL1        0.0000
     43 C          57.7755   91.3394    5.1049 C.3     1  UNL1        0.0000
     44 C          59.2698   92.3954    4.0316 C.3     1  UNL1        0.0000
@<TRIPOS>BOND
     1     9     8    1
     2     9    10    1
     3    10    11    1
     4    11    12   ar
     5    12    13   ar
     6    13    14   ar
     7    14    15   ar
     8    15    16    1
     9    15    17   ar
    10    17    18   ar
    11    18    19   ar
    12    19    20   ar
    13     9     7    1
    14     7     6    1
    15     6     2    1
    16     2     3    2
    17     2     4    1
    18     2     1    1
    19     1    23    1
    20    23    24    1
    21    24    25    1
    22    25    26    1
    23    26    27    1
    24    27    28    1
    25    28    29    1
    26    29    30    1
    27    30    31    1
    28    31    32    1
    29    32    33    1
    30    33    34    1
    31    34    35    1
    32    35    36    1
    33    36    37    1
    34    37    38    1
    35    38    39    1
    36    39    40    3
    37    40    41    1
    38    41    42    1
    39    41    43    1
    40    41    44    1
    41    20    11   ar
    42    20    14   ar
    43    16    21    1
    44    16    22    1
    45     4     5    1
@<TRIPOS>MOLECULE
*****
 44 45 0 0 0
SMALL
GASTEIGER

@<TRIPOS>ATOM
      1 O          63.8942   88.2470   14.7167 O.3     1  UNL1        0.0000
      2 P          63.4342   89.0411   15.9031 P.3     1  UNL1        0.0000
      3 O          63.0619   87.7710   16.6089 O.2     1  UNL1        0.0000
      4 O          62.9742   89.8352   17.0896 O.3     1  UNL1        0.0000
      5 H          62.6481   89.2320   17.7757 H       1  UNL1        0.0000
      6 C          63.8065   90.3112   15.1974 C.3     1  UNL1        0.0000
      7 O          65.1300   90.4217   14.5002 O.3     1  UNL1        0.0000
      8 C          64.2598   91.4985   12.3017 C.3     1  UNL1        0.0000
      9 C          65.3049   91.3955   13.3728 C.3     1  UNL1        0.0000
     10 C          66.5250   92.2664   13.3164 C.3     1  UNL1        0.0000
     11 N          66.6399   93.3292   12.2642 N.ar    1  UNL1        0.0000
     12 C          66.1427   94.7398   12.3777 C.ar    1  UNL1        0.0000
     13 N          66.4677   95.4503   11.0973 N.ar    1  UNL1        0.0000
     14 C          67.1658   94.4788   10.1924 C.ar    1  UNL1        0.0000
     15 C          67.7183   94.6186    8.8049 C.ar    1  UNL1        0.0000
     16 N          67.6119   95.9295    8.0837 N.pl3   1  UNL1        0.0000
     17 N          68.3773   93.4474    8.1386 N.ar    1  UNL1        0.0000
     18 C          68.4837   92.1364    8.8597 C.ar    1  UNL1        0.0000
     19 N          67.9312   91.9967   10.2472 N.ar    1  UNL1        0.0000
     20 C          67.2723   93.1679   10.9135 C.ar    1  UNL1        0.0000
     21 H          67.1794   96.6982    8.5211 H       1  UNL1        0.0000
     22 H          67.9745   96.0212    7.1730 H       1  UNL1        0.0000
     23 C          64.4732   86.8768   14.9100 C.3     1  UNL1        0.0000
     24 C          63.9803   85.7301   14.0782 C.3     1  UNL1        0.0000
     25 C          63.4087   84.5128   14.7427 C.3     1  UNL1        0.0000
     26 C          62.4156   83.6571   14.0137 C.3     1  UNL1        0.0000
     27 C          62.0787   82.2908   14.5331 C.3     1  UNL1        0.0000
     28 C          62.4779   81.0728   13.7541 C.3     1  UNL1        0.0000
     29 C          62.3985   81.0812   12.2561 C.3     1  UNL1        0.0000
     30 C          63.6457   81.2493   11.4399 C.3     1  UNL1        0.0000
     31 C          64.2395   82.6136   11.2498 C.3     1  UNL1        0.0000
     32 C          64.0160   83.3567    9.9661 C.3     1  UNL1        0.0000
     33 C          63.2555   84.6495    9.9706 C.3     1  UNL1        0.0000
     34 C          62.9641   85.3527    8.6780 C.3     1  UNL1        0.0000
     35 C          61.6513   86.0518    8.4839 C.3     1  UNL1        0.0000
     36 C          61.2661   87.1879    9.3843 C.3     1  UNL1        0.0000
     37 C          59.9924   87.9410    9.1386 C.3     1  UNL1        0.0000
     38 C          59.2894   87.8154    7.8195 C.3     1  UNL1        0.0000
     39 C          59.2836   88.9681    6.8599 C.1     1  UNL1        0.0000
     40 C          59.2778   90.1209    5.9000 C.1     1  UNL1        0.0000
     41 SI         59.2721   91.2737    4.9403 Si      1  UNL1        0.0000
     42 C          60.7598   91.1551    4.7889 C.3     1  UNL1        0.0000
     43 C          57.7845   91.3922    5.0917 C.3     1  UNL1        0.0000
     44 C          59.2664   92.4264    3.9805 C.3     1  UNL1        0.0000
@<TRIPOS>BOND
     1     9     8    1
     2     9    10    1
     3    10    11    1
     4    11    12   ar
     5    12    13   ar
     6    13    14   ar
     7    14    15   ar
     8    15    16    1
     9    15    17   ar
    10    17    18   ar
    11    18    19   ar
    12    19    20   ar
    13     9     7    1
    14     7     6    1
    15     6     2    1
    16     2     3    2
    17     2     4    1
    18     2     1    1
    19     1    23    1
    20    23    24    1
    21    24    25    1
    22    25    26    1
    23    26    27    1
    24    27    28    1
    25    28    29    1
    26    29    30    1
    27    30    31    1
    28    31    32    1
    29    32    33    1
    30    33    34    1
    31    34    35    1
    32    35    36    1
    33    36    37    1
    34    37    38    1
    35    38    39    1
    36    39    40    3
    37    40    41    1
    38    41    42    1
    39    41    43    1
    40    41    44    1
    41    20    11   ar
    42    20    14   ar
    43    16    21    1
    44    16    22    1
    45     4     5    1
@<TRIPOS>MOLECULE
*****
 44 45 0 0 0
SMALL
GASTEIGER

@<TRIPOS>ATOM
      1 O          64.0763   88.7434   14.2112 O.3     1  UNL1        0.0000
      2 P          63.7359   90.1204   14.6991 P.3     1  UNL1        0.0000
      3 O          62.2942   89.7228   14.8153 O.2     1  UNL1        0.0000
      4 O          63.3955   91.4973   15.1871 O.3     1  UNL1        0.0000
      5 H          62.4431   91.5518   15.3631 H       1  UNL1        0.0000
      6 C          65.1775   90.5179   14.5830 C.3     1  UNL1        0.0000
      7 O          65.5919   91.5519   13.5784 O.3     1  UNL1        0.0000
      8 C          67.9768   92.0428   14.4845 C.3     1  UNL1        0.0000
      9 C          66.6782   92.5304   13.9137 C.3     1  UNL1        0.0000
     10 C          66.4659   93.9966   13.6781 C.3     1  UNL1        0.0000
     11 N          66.5160   94.5471   12.2836 N.ar    1  UNL1        0.0000
     12 C          65.9811   95.8767   11.8409 C.ar    1  UNL1        0.0000
     13 N          66.2444   96.0159   10.3707 N.ar    1  UNL1        0.0000
     14 C          66.9421   94.7724    9.9049 C.ar    1  UNL1        0.0000
     15 C          67.4461   94.3495    8.5570 C.ar    1  UNL1        0.0000
     16 N          67.2782   95.2573    7.3747 N.pl3   1  UNL1        0.0000
     17 N          68.1181   93.0187    8.3913 N.ar    1  UNL1        0.0000
     18 C          68.2860   92.1109    9.5735 C.ar    1  UNL1        0.0000
     19 N          67.7819   92.5339   10.9215 N.ar    1  UNL1        0.0000
     20 C          67.1100   93.8646   11.0872 C.ar    1  UNL1        0.0000
     21 H          66.8372   96.1307    7.4835 H       1  UNL1        0.0000
     22 H          67.6091   94.9797    6.4900 H       1  UNL1        0.0000
     23 C          64.1319   87.5976   15.1776 C.3     1  UNL1        0.0000
     24 C          64.4777   86.2217   14.6905 C.3     1  UNL1        0.0000
     25 C          63.4389   85.3866   14.0025 C.3     1  UNL1        0.0000
     26 C          63.2785   85.4661   12.5132 C.3     1  UNL1        0.0000
     27 C          61.9081   85.5559   11.9101 C.3     1  UNL1        0.0000
     28 C          61.3641   86.8856   11.4788 C.3     1  UNL1        0.0000
     29 C          62.2876   87.9298   10.9248 C.3     1  UNL1        0.0000
     30 C          61.8007   88.8777    9.8691 C.3     1  UNL1        0.0000
     31 C          60.3392   88.9458    9.5386 C.3     1  UNL1        0.0000
     32 C          59.8605   88.5573    8.1711 C.3     1  UNL1        0.0000
     33 C          59.4242   87.1477    7.9017 C.3     1  UNL1        0.0000
     34 C          60.3658   86.0089    8.1593 C.3     1  UNL1        0.0000
     35 C          61.2636   85.5155    7.0636 C.3     1  UNL1        0.0000
     36 C          62.5723   84.8653    7.4019 C.3     1  UNL1        0.0000
     37 C          63.0990   84.9254    8.8051 C.3     1  UNL1        0.0000
     38 C          64.0271   83.8578    9.3041 C.3     1  UNL1        0.0000
     39 C          63.5542   82.8735   10.3323 C.1     1  UNL1        0.0000
     40 C          63.0814   81.8890   11.3607 C.1     1  UNL1        0.0000
     41 SI         62.6087   80.9046   12.3890 Si      1  UNL1        0.0000
     42 C          62.3568   82.0289   13.3496 C.3     1  UNL1        0.0000
     43 C          62.8605   79.7803   11.4285 C.3     1  UNL1        0.0000
     44 C          62.1359   79.9203   13.4173 C.3     1  UNL1        0.0000
@<TRIPOS>BOND
     1     9     8    1
     2     9    10    1
     3    10    11    1
     4    11    12   ar
     5    12    13   ar
     6    13    14   ar
     7    14    15   ar
     8    15    16    1
     9    15    17   ar
    10    17    18   ar
    11    18    19   ar
    12    19    20   ar
    13     9     7    1
    14     7     6    1
    15     6     2    1
    16     2     3    2
    17     2     4    1
    18     2     1    1
    19     1    23    1
    20    23    24    1
    21    24    25    1
    22    25    26    1
    23    26    27    1
    24    27    28    1
    25    28    29    1
    26    29    30    1
    27    30    31    1
    28    31    32    1
    29    32    33    1
    30    33    34    1
    31    34    35    1
    32    35    36    1
    33    36    37    1
    34    37    38    1
    35    38    39    1
    36    39    40    3
    37    40    41    1
    38    41    42    1
    39    41    43    1
    40    41    44    1
    41    20    11   ar
    42    20    14   ar
    43    16    21    1
    44    16    22    1
    45     4     5    1
@<TRIPOS>MOLECULE
*****
 44 45 0 0 0
SMALL
GASTEIGER

@<TRIPOS>ATOM
      1 O          63.7213   88.3289   14.2034 O.3     1  UNL1        0.0000
      2 P          63.5165   89.7806   14.5204 P.3     1  UNL1        0.0000
      3 O          63.3558   89.4408   15.9725 O.2     1  UNL1        0.0000
      4 O          63.3116   91.2324   14.8374 O.3     1  UNL1        0.0000
      5 H          63.1695   91.3381   15.7911 H       1  UNL1        0.0000
      6 C          63.6772   90.1204   13.0683 C.3     1  UNL1        0.0000
      7 O          63.7405   91.5554   12.6363 O.3     1  UNL1        0.0000
      8 C          63.3655   91.5037   10.0659 C.3     1  UNL1        0.0000
      9 C          64.1961   91.9020   11.2498 C.3     1  UNL1        0.0000
     10 C          65.4823   92.6468   11.0472 C.3     1  UNL1        0.0000
     11 N          66.6493   92.3888   11.9536 N.ar    1  UNL1        0.0000
     12 C          68.0132   91.9333   11.5270 C.ar    1  UNL1        0.0000
     13 N          68.8640   91.8040   12.7556 N.ar    1  UNL1        0.0000
     14 C          68.0258   92.1796   13.9415 C.ar    1  UNL1        0.0000
     15 C          68.3322   92.2392   15.4087 C.ar    1  UNL1        0.0000
     16 N          69.7010   91.8777   15.9043 N.pl3   1  UNL1        0.0000
     17 N          67.2697   92.6602   16.3802 N.ar    1  UNL1        0.0000
     18 C          65.9009   93.0216   15.8845 C.ar    1  UNL1        0.0000
     19 N          65.5945   92.9621   14.4174 N.ar    1  UNL1        0.0000
     20 C          66.6570   92.5410   13.4459 C.ar    1  UNL1        0.0000
     21 H          70.3983   91.6014   15.2667 H       1  UNL1        0.0000
     22 H          69.9020   91.9168   16.8673 H       1  UNL1        0.0000
     23 C          64.2360   87.3960   15.2591 C.3     1  UNL1        0.0000
     24 C          64.6433   85.9997   14.8924 C.3     1  UNL1        0.0000
     25 C          63.7497   85.1603   14.0283 C.3     1  UNL1        0.0000
     26 C          63.3742   85.6334   12.6552 C.3     1  UNL1        0.0000
     27 C          61.9758   85.4355   12.1500 C.3     1  UNL1        0.0000
     28 C          61.3433   86.4708   11.2680 C.3     1  UNL1        0.0000
     29 C          62.1488   87.6429   10.7907 C.3     1  UNL1        0.0000
     30 C          61.5588   88.6064    9.8041 C.3     1  UNL1        0.0000
     31 C          60.0934   88.5536    9.4885 C.3     1  UNL1        0.0000
     32 C          59.6377   88.3166    8.0792 C.3     1  UNL1        0.0000
     33 C          59.3666   86.9201    7.6035 C.3     1  UNL1        0.0000
     34 C          60.3218   85.8140    7.9413 C.3     1  UNL1        0.0000
     35 C          61.4915   85.5333    7.0452 C.3     1  UNL1        0.0000
     36 C          62.5832   84.6123    7.5032 C.3     1  UNL1        0.0000
     37 C          63.2296   84.8219    8.8404 C.3     1  UNL1        0.0000
     38 C          64.1343   83.7695    9.4094 C.3     1  UNL1        0.0000
     39 C          63.6124   82.8051   10.4329 C.1     1  UNL1        0.0000
     40 C          63.0904   81.8408   11.4565 C.1     1  UNL1        0.0000
     41 SI         62.5684   80.8765   12.4800 Si      1  UNL1        0.0000
     42 C          62.7960   79.7411   11.5264 C.3     1  UNL1        0.0000
     43 C          62.3408   82.0118   13.4335 C.3     1  UNL1        0.0000
     44 C          62.0465   79.9121   13.5035 C.3     1  UNL1        0.0000
@<TRIPOS>BOND
     1     9     8    1
     2     9    10    1
     3    10    11    1
     4    11    12   ar
     5    12    13   ar
     6    13    14   ar
     7    14    15   ar
     8    15    16    1
     9    15    17   ar
    10    17    18   ar
    11    18    19   ar
    12    19    20   ar
    13     9     7    1
    14     7     6    1
    15     6     2    1
    16     2     3    2
    17     2     4    1
    18     2     1    1
    19     1    23    1
    20    23    24    1
    21    24    25    1
    22    25    26    1
    23    26    27    1
    24    27    28    1
    25    28    29    1
    26    29    30    1
    27    30    31    1
    28    31    32    1
    29    32    33    1
    30    33    34    1
    31    34    35    1
    32    35    36    1
    33    36    37    1
    34    37    38    1
    35    38    39    1
    36    39    40    3
    37    40    41    1
    38    41    42    1
    39    41    43    1
    40    41    44    1
    41    20    11   ar
    42    20    14   ar
    43    16    21    1
    44    16    22    1
    45     4     5    1
@<TRIPOS>MOLECULE
*****
 44 45 0 0 0
SMALL
GASTEIGER

@<TRIPOS>ATOM
      1 O          62.3708   82.6797   13.8317 O.3     1  UNL1        0.0000
      2 P          62.3606   81.1890   13.6647 P.3     1  UNL1        0.0000
      3 O          60.9508   81.1416   14.1749 O.2     1  UNL1        0.0000
      4 O          62.3503   79.6984   13.4978 O.3     1  UNL1        0.0000
      5 H          61.4885   79.3482   13.7729 H       1  UNL1        0.0000
      6 C          63.7704   81.2364   13.1546 C.3     1  UNL1        0.0000
      7 O          64.1897   82.3225   12.2089 O.3     1  UNL1        0.0000
      8 C          63.3652   80.9926   10.1348 C.3     1  UNL1        0.0000
      9 C          63.7239   82.2968   10.7833 C.3     1  UNL1        0.0000
     10 C          63.6169   83.5754   10.0060 C.3     1  UNL1        0.0000
     11 N          62.8090   84.7171   10.5480 N.ar    1  UNL1        0.0000
     12 C          62.7948   85.1897   11.9715 C.ar    1  UNL1        0.0000
     13 N          61.8506   86.3514   12.0648 N.ar    1  UNL1        0.0000
     14 C          61.2812   86.5969   10.6990 C.ar    1  UNL1        0.0000
     15 C          60.2999   87.6097   10.1878 C.ar    1  UNL1        0.0000
     16 N          59.7076   88.6197   11.1253 N.pl3   1  UNL1        0.0000
     17 N          59.9110   87.6124    8.7391 N.ar    1  UNL1        0.0000
     18 C          60.5034   86.6023    7.8016 C.ar    1  UNL1        0.0000
     19 N          61.4847   85.5896    8.3128 N.ar    1  UNL1        0.0000
     20 C          61.8736   85.5869    9.7615 C.ar    1  UNL1        0.0000
     21 H          59.9628   88.6179   12.0761 H       1  UNL1        0.0000
     22 H          59.0635   89.2844   10.7897 H       1  UNL1        0.0000
     23 C          62.8471   83.2871   15.1178 C.3     1  UNL1        0.0000
     24 C          64.2674   83.7518   15.2472 C.3     1  UNL1        0.0000
     25 C          64.5708   85.2173   15.3482 C.3     1  UNL1        0.0000
     26 C          63.4830   86.1853   15.7082 C.3     1  UNL1        0.0000
     27 C          63.1803   86.4714   17.1492 C.3     1  UNL1        0.0000
     28 C          62.9529   87.8833   17.6018 C.3     1  UNL1        0.0000
     29 C          62.6370   88.9514   16.5970 C.3     1  UNL1        0.0000
     30 C          63.5039   90.1719   16.5022 C.3     1  UNL1        0.0000
     31 C          63.8693   90.7298   15.1587 C.3     1  UNL1        0.0000
     32 C          64.5971   89.8746   14.1642 C.3     1  UNL1        0.0000
     33 C          63.8285   88.9607   13.2564 C.3     1  UNL1        0.0000
     34 C          63.1418   89.5130   12.0426 C.3     1  UNL1        0.0000
     35 C          63.1034   90.9946   11.8115 C.3     1  UNL1        0.0000
     36 C          63.6985   91.5745   10.5627 C.3     1  UNL1        0.0000
     37 C          65.0837   92.1494   10.5889 C.3     1  UNL1        0.0000
     38 C          65.4073   93.2846   11.5144 C.3     1  UNL1        0.0000
     39 C          66.2251   93.0375   12.7473 C.1     1  UNL1        0.0000
     40 C          67.0430   92.7903   13.9802 C.1     1  UNL1        0.0000
     41 SI         67.8609   92.5431   15.2131 Si      1  UNL1        0.0000
     42 C          66.6565   92.8122   16.0660 C.3     1  UNL1        0.0000
     43 C          69.0651   92.2739   14.3603 C.3     1  UNL1        0.0000
     44 C          68.6786   92.2959   16.4460 C.3     1  UNL1        0.0000
@<TRIPOS>BOND
     1     9     8    1
     2     9    10    1
     3    10    11    1
     4    11    12   ar
     5    12    13   ar
     6    13    14   ar
     7    14    15   ar
     8    15    16    1
     9    15    17   ar
    10    17    18   ar
    11    18    19   ar
    12    19    20   ar
    13     9     7    1
    14     7     6    1
    15     6     2    1
    16     2     3    2
    17     2     4    1
    18     2     1    1
    19     1    23    1
    20    23    24    1
    21    24    25    1
    22    25    26    1
    23    26    27    1
    24    27    28    1
    25    28    29    1
    26    29    30    1
    27    30    31    1
    28    31    32    1
    29    32    33    1
    30    33    34    1
    31    34    35    1
    32    35    36    1
    33    36    37    1
    34    37    38    1
    35    38    39    1
    36    39    40    3
    37    40    41    1
    38    41    42    1
    39    41    43    1
    40    41    44    1
    41    20    11   ar
    42    20    14   ar
    43    16    21    1
    44    16    22    1
    45     4     5    1
@<TRIPOS>MOLECULE
*****
 44 45 0 0 0
SMALL
GASTEIGER

@<TRIPOS>ATOM
      1 O          60.6967   88.5533    8.7390 O.3     1  UNL1        0.0000
      2 P          59.5167   88.2727    7.8565 P.3     1  UNL1        0.0000
      3 O          59.4204   86.8882    8.4256 O.2     1  UNL1        0.0000
      4 O          58.3366   87.9920    6.9741 O.3     1  UNL1        0.0000
      5 H          58.0236   87.0874    7.1308 H       1  UNL1        0.0000
      6 C          59.6129   89.6572    7.2875 C.3     1  UNL1        0.0000
      7 O          59.5362   89.8655    5.8041 O.3     1  UNL1        0.0000
      8 C          57.1564   90.8143    5.3726 C.3     1  UNL1        0.0000
      9 C          58.6459   90.9336    5.2416 C.3     1  UNL1        0.0000
     10 C          59.2451   92.1212    4.5482 C.3     1  UNL1        0.0000
     11 N          60.6325   92.0390    3.9840 N.ar    1  UNL1        0.0000
     12 C          61.7089   91.0918    4.4246 C.ar    1  UNL1        0.0000
     13 N          62.9287   91.3571    3.5930 N.ar    1  UNL1        0.0000
     14 C          62.6063   92.4683    2.6384 C.ar    1  UNL1        0.0000
     15 C          63.4216   93.1508    1.5804 C.ar    1  UNL1        0.0000
     16 N          64.8407   92.7293    1.3387 N.pl3   1  UNL1        0.0000
     17 N          62.8177   94.2548    0.7640 N.ar    1  UNL1        0.0000
     18 C          61.3986   94.6763    1.0056 C.ar    1  UNL1        0.0000
     19 N          60.5833   93.9938    2.0637 N.ar    1  UNL1        0.0000
     20 C          61.1872   92.8898    2.8800 C.ar    1  UNL1        0.0000
     21 H          65.2370   92.0047    1.8746 H       1  UNL1        0.0000
     22 H          65.3758   93.1772    0.6443 H       1  UNL1        0.0000
     23 C          60.7832   87.9246   10.0981 C.3     1  UNL1        0.0000
     24 C          62.0155   87.1685   10.4976 C.3     1  UNL1        0.0000
     25 C          61.9490   86.1562   11.6026 C.3     1  UNL1        0.0000
     26 C          62.4494   84.7610   11.3726 C.3     1  UNL1        0.0000
     27 C          63.3968   84.4804   10.2440 C.3     1  UNL1        0.0000
     28 C          63.9507   83.0992   10.0554 C.3     1  UNL1        0.0000
     29 C          63.9113   82.1144   11.1862 C.3     1  UNL1        0.0000
     30 C          62.8162   81.0915   11.2522 C.3     1  UNL1        0.0000
     31 C          62.7579   80.1281   12.4004 C.3     1  UNL1        0.0000
     32 C          62.7092   80.6419   13.8088 C.3     1  UNL1        0.0000
     33 C          61.6910   81.6729   14.1963 C.3     1  UNL1        0.0000
     34 C          62.1297   83.0598   14.5622 C.3     1  UNL1        0.0000
     35 C          63.4873   83.2840   15.1594 C.3     1  UNL1        0.0000
     36 C          64.6025   83.8157   14.3088 C.3     1  UNL1        0.0000
     37 C          65.1470   85.1906   14.5597 C.3     1  UNL1        0.0000
     38 C          64.2561   86.2594   15.1201 C.3     1  UNL1        0.0000
     39 C          64.2948   87.6449   14.5467 C.1     1  UNL1        0.0000
     40 C          64.3335   89.0305   13.9732 C.1     1  UNL1        0.0000
     41 SI         64.3722   90.4160   13.3998 Si      1  UNL1        0.0000
     42 C          63.3392   90.0248   12.3848 C.3     1  UNL1        0.0000
     43 C          65.4051   90.8072   14.4147 C.3     1  UNL1        0.0000
     44 C          64.4109   91.8015   12.8263 C.3     1  UNL1        0.0000
@<TRIPOS>BOND
     1     9     8    1
     2     9    10    1
     3    10    11    1
     4    11    12   ar
     5    12    13   ar
     6    13    14   ar
     7    14    15   ar
     8    15    16    1
     9    15    17   ar
    10    17    18   ar
    11    18    19   ar
    12    19    20   ar
    13     9     7    1
    14     7     6    1
    15     6     2    1
    16     2     3    2
    17     2     4    1
    18     2     1    1
    19     1    23    1
    20    23    24    1
    21    24    25    1
    22    25    26    1
    23    26    27    1
    24    27    28    1
    25    28    29    1
    26    29    30    1
    27    30    31    1
    28    31    32    1
    29    32    33    1
    30    33    34    1
    31    34    35    1
    32    35    36    1
    33    36    37    1
    34    37    38    1
    35    38    39    1
    36    39    40    3
    37    40    41    1
    38    41    42    1
    39    41    43    1
    40    41    44    1
    41    20    11   ar
    42    20    14   ar
    43    16    21    1
    44    16    22    1
    45     4     5    1
@<TRIPOS>MOLECULE
*****
 44 45 0 0 0
SMALL
GASTEIGER

@<TRIPOS>ATOM
      1 O          60.6863   88.1011    9.4208 O.3     1  UNL1        0.0000
      2 P          59.8150   87.7912    8.2398 P.3     1  UNL1        0.0000
      3 O          59.3703   89.2230    8.1922 O.2     1  UNL1        0.0000
      4 O          58.9436   87.4813    7.0589 O.3     1  UNL1        0.0000
      5 H          58.4847   88.2874    6.7752 H       1  UNL1        0.0000
      6 C          60.2596   86.3595    8.2874 C.3     1  UNL1        0.0000
      7 O          61.4616   85.9739    9.0977 O.3     1  UNL1        0.0000
      8 C          62.5980   84.8474    7.0509 C.3     1  UNL1        0.0000
      9 C          62.4687   85.0147    8.5359 C.3     1  UNL1        0.0000
     10 C          63.3464   84.2226    9.4592 C.3     1  UNL1        0.0000
     11 N          63.0866   84.2363   10.9365 N.ar    1  UNL1        0.0000
     12 C          62.8808   85.4566   11.7842 C.ar    1  UNL1        0.0000
     13 N          62.6540   85.0065   13.1970 N.ar    1  UNL1        0.0000
     14 C          62.7197   83.5082   13.2225 C.ar    1  UNL1        0.0000
     15 C          62.5706   82.5158   14.3373 C.ar    1  UNL1        0.0000
     16 N          62.3032   82.9918   15.7344 N.pl3   1  UNL1        0.0000
     17 N          62.6889   81.0474   14.0550 N.ar    1  UNL1        0.0000
     18 C          62.9563   80.5714   12.6579 C.ar    1  UNL1        0.0000
     19 N          63.1054   81.5637   11.5431 N.ar    1  UNL1        0.0000
     20 C          62.9871   83.0321   11.8254 C.ar    1  UNL1        0.0000
     21 H          62.2256   83.9556   15.9197 H       1  UNL1        0.0000
     22 H          62.2054   82.3405   16.4661 H       1  UNL1        0.0000
     23 C          61.0476   89.5229    9.7337 C.3     1  UNL1        0.0000
     24 C          62.3934   89.8448   10.3127 C.3     1  UNL1        0.0000
     25 C          62.9140   91.2507   10.2640 C.3     1  UNL1        0.0000
     26 C          64.1909   91.6024   10.9682 C.3     1  UNL1        0.0000
     27 C          65.0890   92.6645   10.4068 C.3     1  UNL1        0.0000
     28 C          65.3658   93.9082   11.1983 C.3     1  UNL1        0.0000
     29 C          66.2780   94.9624   10.6444 C.3     1  UNL1        0.0000
     30 C          66.8880   94.7875    9.2852 C.3     1  UNL1        0.0000
     31 C          68.2618   94.2008    9.1495 C.3     1  UNL1        0.0000
     32 C          68.4274   92.7413    8.8455 C.3     1  UNL1        0.0000
     33 C          68.2840   91.7262    9.9404 C.3     1  UNL1        0.0000
     34 C          68.6179   92.0966   11.3550 C.3     1  UNL1        0.0000
     35 C          67.7750   91.5821   12.4840 C.3     1  UNL1        0.0000
     36 C          67.7678   92.2987   13.8018 C.3     1  UNL1        0.0000
     37 C          66.5481   92.2531   14.6736 C.3     1  UNL1        0.0000
     38 C          65.2823   91.6329   14.1606 C.3     1  UNL1        0.0000
     39 C          64.7947   90.3369   14.7371 C.1     1  UNL1        0.0000
     40 C          64.3071   89.0407   15.3137 C.1     1  UNL1        0.0000
     41 SI         63.8194   87.7447   15.8903 Si      1  UNL1        0.0000
     42 C          63.0212   88.4994   16.9117 C.3     1  UNL1        0.0000
     43 C          64.6177   86.9900   14.8689 C.3     1  UNL1        0.0000
     44 C          63.3317   86.4487   16.4669 C.3     1  UNL1        0.0000
@<TRIPOS>BOND
     1     9     8    1
     2     9    10    1
     3    10    11    1
     4    11    12   ar
     5    12    13   ar
     6    13    14   ar
     7    14    15   ar
     8    15    16    1
     9    15    17   ar
    10    17    18   ar
    11    18    19   ar
    12    19    20   ar
    13     9     7    1
    14     7     6    1
    15     6     2    1
    16     2     3    2
    17     2     4    1
    18     2     1    1
    19     1    23    1
    20    23    24    1
    21    24    25    1
    22    25    26    1
    23    26    27    1
    24    27    28    1
    25    28    29    1
    26    29    30    1
    27    30    31    1
    28    31    32    1
    29    32    33    1
    30    33    34    1
    31    34    35    1
    32    35    36    1
    33    36    37    1
    34    37    38    1
    35    38    39    1
    36    39    40    3
    37    40    41    1
    38    41    42    1
    39    41    43    1
    40    41    44    1
    41    20    11   ar
    42    20    14   ar
    43    16    21    1
    44    16    22    1
    45     4     5    1
