@<TRIPOS>MOLECULE
*****
 54 57 0 0 0
SMALL
GASTEIGER

@<TRIPOS>ATOM
      1 C          63.8160   91.4243   11.0781 C.3     1  UNL1        0.0760
      2 C          64.0702   89.8783   13.1507 C.2     1  UNL1        0.2404
      3 O          63.4882   88.7369   12.3707 O.2     1  UNL1       -0.2733
      4 N          64.2341   91.2221   12.5044 N.am    1  UNL1       -0.3043
      5 H          64.6161   91.9712   13.0163 H       1  UNL1        0.1494
      6 C          64.4883   89.6761   14.5770 C.3     1  UNL1        0.1511
      7 N          63.1327   86.6051   16.6938 N.am    1  UNL1       -0.2567
      8 C          61.9623   86.2569   17.5649 C.3     1  UNL1        0.1168
      9 C          63.2253   87.9665   16.0710 C.2     1  UNL1        0.3046
     10 O          62.1475   88.9798   16.3192 O.2     1  UNL1       -0.2526
     11 N          64.3958   88.3146   15.1999 N.am    1  UNL1       -0.2824
     12 H          65.1032   87.6496   15.0369 H       1  UNL1        0.1514
     13 C          64.2105   85.5919   16.4456 C.3     1  UNL1        0.1413
     14 C          63.2295   82.7949   13.9395 C.ar    1  UNL1        0.0875
     15 N          62.9887   83.5639   15.2047 N.ar    1  UNL1       -0.2453
     16 C          64.0655   84.6008   15.3289 C.ar    1  UNL1        0.0858
     17 C          64.9717   84.4726   14.1405 C.ar    1  UNL1        0.0530
     18 S          64.4551   83.3565   13.2818 S.2     1  UNL1       -0.0705
     19 C          62.7436   81.0020   12.1230 C.3     1  UNL1        0.0069
     20 C          62.3917   81.6630   13.4227 C.3     1  UNL1        0.0465
     21 C          61.2021   81.1921   14.2056 C.3     1  UNL1        0.0069
     22 C          64.9990   90.8353   15.3804 C.3     1  UNL1        0.0458
     23 C          64.0529   91.6395   16.2218 C.3     1  UNL1        0.0674
     24 N          64.5687   92.7788   17.0499 N.3     1  UNL1       -0.3211
     25 H          65.1821   92.4178   17.7805 H       1  UNL1        0.1189
     26 H          63.7841   93.2711   17.4772 H       1  UNL1        0.1189
     27 C          63.0627   90.3459   10.3573 C.3     1  UNL1        0.0216
     28 C          61.5663   90.2902   10.4439 C.3     1  UNL1        0.0217
     29 C          60.7966   89.3700    9.5433 C.3     1  UNL1        0.0792
     30 N          60.4514   89.8012    8.1486 N.am    1  UNL1       -0.2720
     31 C          59.3824   89.0789    7.3833 C.2     1  UNL1        0.4019
     32 O          58.6587   87.9255    8.0126 O.2     1  UNL1       -0.2264
     33 H          60.9264   90.5582    7.7356 H       1  UNL1        0.1527
     34 O          59.0372   89.5100    5.9887 O.3     1  UNL1       -0.4291
     35 C          58.9060   90.9688    5.6655 C.3     1  UNL1        0.2447
     36 C          59.7936   91.5899    4.6280 C.ar    1  UNL1        0.0714
     37 C          61.2506   91.2972    4.4245 C.ar    1  UNL1        0.1053
     38 N          61.7375   92.1391    3.2825 N.ar    1  UNL1       -0.2350
     39 C          60.5814   92.9522    2.7802 C.ar    1  UNL1        0.1343
     40 S          59.3800   92.6128    3.6117 S.2     1  UNL1       -0.0652
     41 C          60.3723   88.0188   10.0373 C.3     1  UNL1        0.0460
     42 C          61.3112   86.8536    9.9340 C.ar    1  UNL1       -0.0205
     43 C          61.5591   85.9819   11.1293 C.ar    1  UNL1       -0.0042
     44 C          62.4980   84.8167   11.0260 C.ar    1  UNL1       -0.0003
     45 C          63.1890   84.5232    9.7274 C.ar    1  UNL1       -0.0000
     46 C          62.9412   85.3948    8.5321 C.ar    1  UNL1       -0.0003
     47 C          62.0023   86.5600    8.6354 C.ar    1  UNL1       -0.0042
     48 C          64.1512   92.7050   10.3727 C.3     1  UNL1        0.0459
     49 C          65.5838   93.0644   10.1111 C.ar    1  UNL1       -0.0205
     50 C          65.9685   94.4965    9.8846 C.ar    1  UNL1       -0.0042
     51 C          67.4011   94.8558    9.6230 C.ar    1  UNL1       -0.0003
     52 C          68.4491   93.7831    9.5879 C.ar    1  UNL1       -0.0000
     53 C          68.0644   92.3511    9.8144 C.ar    1  UNL1       -0.0003
     54 C          66.6317   91.9917   10.0760 C.ar    1  UNL1       -0.0042
@<TRIPOS>BOND
     1    19    20    1
     2    20    21    1
     3    20    14    1
     4    14    15   ar
     5    15    16   ar
     6    16    13    1
     7    13     7    1
     8     7     8    1
     9     7     9   am
    10     9    10    2
    11     9    11   am
    12    11     6    1
    13     6    22    1
    14    22    23    1
    15    23    24    1
    16     6     2    1
    17     2     3    2
    18     2     4   am
    19     4     1    1
    20     1    27    1
    21    27    28    1
    22    29    28    1
    23    29    41    1
    24    41    42    1
    25    42    43   ar
    26    43    44   ar
    27    44    45   ar
    28    45    46   ar
    29    46    47   ar
    30    29    30    1
    31    30    31   am
    32    31    32    2
    33    31    34    1
    34    34    35    1
    35    35    36    1
    36    36    37   ar
    37    37    38   ar
    38    38    39   ar
    39    39    40   ar
    40     1    48    1
    41    48    49    1
    42    49    50   ar
    43    50    51   ar
    44    51    52   ar
    45    52    53   ar
    46    53    54   ar
    47    16    17   ar
    48    17    18   ar
    49    18    14   ar
    50    47    42   ar
    51    40    36   ar
    52    54    49   ar
    53    11    12    1
    54    24    25    1
    55    24    26    1
    56     4     5    1
    57    30    33    1
@<TRIPOS>MOLECULE
*****
 54 57 0 0 0
SMALL
GASTEIGER

@<TRIPOS>ATOM
      1 C          60.9776   88.9029    9.4077 C.3     1  UNL1        0.0760
      2 C          59.7684   89.2759    7.1386 C.2     1  UNL1        0.2404
      3 O          59.7659   87.7956    6.8966 O.2     1  UNL1       -0.2733
      4 N          60.3742   89.8296    8.3942 N.am    1  UNL1       -0.3043
      5 H          60.3758   90.8012    8.5531 H       1  UNL1        0.1494
      6 C          59.1650   90.2026    6.1251 C.3     1  UNL1        0.1511
      7 N          60.5405   92.6890    3.3546 N.am    1  UNL1       -0.2567
      8 C          60.2125   94.0322    2.7729 C.3     1  UNL1        0.1168
      9 C          59.6888   92.1174    4.4490 C.2     1  UNL1        0.3046
     10 O          58.5090   92.8889    4.9618 O.2     1  UNL1       -0.2526
     11 N          60.0168   90.7742    5.0307 N.am    1  UNL1       -0.2824
     12 H          60.7911   90.2678    4.6942 H       1  UNL1        0.1514
     13 C          61.7203   91.9175    2.8419 C.3     1  UNL1        0.1413
     14 C          63.5371   93.4819   -0.2106 C.ar    1  UNL1        0.0875
     15 N          62.3191   92.8727    0.4182 N.ar    1  UNL1       -0.2453
     16 C          62.6491   92.5429    1.8438 C.ar    1  UNL1        0.0858
     17 C          64.0711   92.9483    2.0961 C.ar    1  UNL1        0.0530
     18 S          64.6199   93.5287    0.8265 S.2     1  UNL1       -0.0705
     19 C          62.9836   93.1983   -2.7331 C.3     1  UNL1        0.0069
     20 C          63.6521   93.9605   -1.6275 C.3     1  UNL1        0.0465
     21 C          64.4355   95.2011   -1.9389 C.3     1  UNL1        0.0069
     22 C          57.7099   90.5577    6.2061 C.3     1  UNL1        0.0458
     23 C          56.8843   90.6275    4.9557 C.3     1  UNL1        0.0674
     24 N          55.6693   91.5057    4.9073 N.3     1  UNL1       -0.3211
     25 H          54.9669   91.1505    5.5560 H       1  UNL1        0.1189
     26 H          55.2883   91.5073    3.9611 H       1  UNL1        0.1189
     27 C          62.0693   89.3903   10.3135 C.3     1  UNL1        0.0216
     28 C          61.8564   89.4161   11.7981 C.3     1  UNL1        0.0217
     29 C          63.0335   89.5119   12.7230 C.3     1  UNL1        0.0792
     30 N          63.7760   88.2714   13.1229 N.am    1  UNL1       -0.2720
     31 C          64.0210   87.9788   14.5736 C.2     1  UNL1        0.4019
     32 O          63.5235   88.9267   15.6243 O.2     1  UNL1       -0.2264
     33 H          64.1025   87.6493   12.4333 H       1  UNL1        0.1527
     34 O          64.7634   86.7383   14.9735 O.3     1  UNL1       -0.4291
     35 C          64.0670   85.6684   15.7611 C.3     1  UNL1        0.2447
     36 C          63.6715   84.3840   15.0949 C.ar    1  UNL1        0.0714
     37 C          64.5479   83.5390   14.2185 C.ar    1  UNL1        0.1053
     38 N          63.7483   82.3518   13.7701 N.ar    1  UNL1       -0.2350
     39 C          62.3777   82.4629   14.3693 C.ar    1  UNL1        0.1343
     40 S          62.3303   83.7189   15.1881 S.2     1  UNL1       -0.0652
     41 C          63.4681   90.8481   13.2479 C.3     1  UNL1        0.0460
     42 C          64.6552   91.5403   12.6464 C.ar    1  UNL1       -0.0205
     43 C          64.6183   91.9842   11.2141 C.ar    1  UNL1       -0.0042
     44 C          65.8054   92.6763   10.6127 C.ar    1  UNL1       -0.0003
     45 C          67.0293   92.9246   11.4436 C.ar    1  UNL1       -0.0000
     46 C          67.0661   92.4808   12.8759 C.ar    1  UNL1       -0.0003
     47 C          65.8791   91.7886   13.4773 C.ar    1  UNL1       -0.0042
     48 C          60.4892   87.4886    9.5154 C.3     1  UNL1        0.0459
     49 C          61.4689   86.3696    9.7101 C.ar    1  UNL1       -0.0205
     50 C          62.2817   85.8742    8.5507 C.ar    1  UNL1       -0.0042
     51 C          63.2614   84.7552    8.7454 C.ar    1  UNL1       -0.0003
     52 C          63.4284   84.1316   10.0994 C.ar    1  UNL1       -0.0000
     53 C          62.6156   84.6270   11.2587 C.ar    1  UNL1       -0.0003
     54 C          61.6359   85.7460   11.0640 C.ar    1  UNL1       -0.0042
@<TRIPOS>BOND
     1    19    20    1
     2    20    21    1
     3    20    14    1
     4    14    15   ar
     5    15    16   ar
     6    16    13    1
     7    13     7    1
     8     7     8    1
     9     7     9   am
    10     9    10    2
    11     9    11   am
    12    11     6    1
    13     6    22    1
    14    22    23    1
    15    23    24    1
    16     6     2    1
    17     2     3    2
    18     2     4   am
    19     4     1    1
    20     1    27    1
    21    27    28    1
    22    29    28    1
    23    29    41    1
    24    41    42    1
    25    42    43   ar
    26    43    44   ar
    27    44    45   ar
    28    45    46   ar
    29    46    47   ar
    30    29    30    1
    31    30    31   am
    32    31    32    2
    33    31    34    1
    34    34    35    1
    35    35    36    1
    36    36    37   ar
    37    37    38   ar
    38    38    39   ar
    39    39    40   ar
    40     1    48    1
    41    48    49    1
    42    49    50   ar
    43    50    51   ar
    44    51    52   ar
    45    52    53   ar
    46    53    54   ar
    47    16    17   ar
    48    17    18   ar
    49    18    14   ar
    50    47    42   ar
    51    40    36   ar
    52    54    49   ar
    53    11    12    1
    54    24    25    1
    55    24    26    1
    56     4     5    1
    57    30    33    1
@<TRIPOS>MOLECULE
*****
 54 57 0 0 0
SMALL
GASTEIGER

@<TRIPOS>ATOM
      1 C          62.7389   84.7538   11.7070 C.3     1  UNL1        0.0760
      2 C          63.9550   85.5594   13.8570 C.2     1  UNL1        0.2404
      3 O          65.0133   84.5169   13.6490 O.2     1  UNL1       -0.2733
      4 N          62.8178   85.6778   12.8859 N.am    1  UNL1       -0.3043
      5 H          62.1232   86.3621   13.0224 H       1  UNL1        0.1494
      6 C          64.0339   86.4834   15.0359 C.3     1  UNL1        0.1511
      7 N          64.3177   90.4277   15.3712 N.am    1  UNL1       -0.2567
      8 C          63.6222   91.5594   16.0680 C.3     1  UNL1        0.1168
      9 C          63.8281   89.0214   15.5519 C.2     1  UNL1        0.3046
     10 O          62.6429   88.7468   16.4295 O.2     1  UNL1       -0.2526
     11 N          64.5236   87.8897   14.8551 N.am    1  UNL1       -0.2824
     12 H          65.3014   88.0699   14.2791 H       1  UNL1        0.1514
     13 C          65.5028   90.7022   14.4936 C.3     1  UNL1        0.1413
     14 C          65.6755   92.9275   11.3182 C.ar    1  UNL1        0.0875
     15 N          66.2398   92.4726   12.6314 N.ar    1  UNL1       -0.2453
     16 C          65.3213   91.4285   13.1938 C.ar    1  UNL1        0.0858
     17 C          64.1894   91.2382   12.2280 C.ar    1  UNL1        0.0530
     18 S          64.4083   92.1646   11.0688 S.2     1  UNL1       -0.0705
     19 C          67.3349   93.5752    9.4268 C.3     1  UNL1        0.0069
     20 C          66.2735   93.9635   10.4131 C.3     1  UNL1        0.0465
     21 C          65.8102   95.3878   10.4943 C.3     1  UNL1        0.0069
     22 C          63.6231   86.0012   16.3956 C.3     1  UNL1        0.0458
     23 C          62.3000   85.3195   16.5815 C.3     1  UNL1        0.0674
     24 N          61.0800   86.1272   16.9118 N.3     1  UNL1       -0.3211
     25 H          61.1884   86.5444   17.8362 H       1  UNL1        0.1189
     26 H          60.2594   85.5214   16.9062 H       1  UNL1        0.1189
     27 C          61.8771   85.1091   10.5319 C.3     1  UNL1        0.0216
     28 C          62.4126   86.0014    9.4516 C.3     1  UNL1        0.0217
     29 C          61.9407   87.4216    9.3493 C.3     1  UNL1        0.0792
     30 N          61.2968   87.9087    8.0852 N.am    1  UNL1       -0.2720
     31 C          59.8290   87.6958    7.8608 C.2     1  UNL1        0.4019
     32 O          59.0052   86.9957    8.9006 O.2     1  UNL1       -0.2264
     33 H          61.8375   88.3682    7.4027 H       1  UNL1        0.1527
     34 O          59.1851   88.1829    6.5966 O.3     1  UNL1       -0.4291
     35 C          58.4357   89.4822    6.5891 C.3     1  UNL1        0.2447
     36 C          58.8178   90.5628    5.6215 C.ar    1  UNL1        0.0714
     37 C          57.8732   91.4970    4.9250 C.ar    1  UNL1        0.1053
     38 N          58.6832   92.4106    4.0536 N.ar    1  UNL1       -0.2350
     39 C          60.1283   92.0410    4.2115 C.ar    1  UNL1        0.1343
     40 S          60.2115   90.8991    5.1806 S.2     1  UNL1       -0.0652
     41 C          62.1127   88.3546   10.5112 C.3     1  UNL1        0.0460
     42 C          60.9230   89.0661   11.0843 C.ar    1  UNL1       -0.0205
     43 C          59.9454   88.3205   11.9435 C.ar    1  UNL1       -0.0042
     44 C          58.7557   89.0320   12.5166 C.ar    1  UNL1       -0.0003
     45 C          58.5436   90.4891   12.2303 C.ar    1  UNL1       -0.0000
     46 C          59.5212   91.2347   11.3711 C.ar    1  UNL1       -0.0003
     47 C          60.7109   90.5232   10.7981 C.ar    1  UNL1       -0.0042
     48 C          63.5220   83.4743   11.7032 C.3     1  UNL1        0.0459
     49 C          62.9585   82.2482   12.3582 C.ar    1  UNL1       -0.0205
     50 C          63.1223   80.9072   11.7063 C.ar    1  UNL1       -0.0042
     51 C          62.5588   79.6810   12.3613 C.ar    1  UNL1       -0.0003
     52 C          61.8314   79.7959   13.6682 C.ar    1  UNL1       -0.0000
     53 C          61.6676   81.1369   14.3200 C.ar    1  UNL1       -0.0003
     54 C          62.2311   82.3631   13.6650 C.ar    1  UNL1       -0.0042
@<TRIPOS>BOND
     1    19    20    1
     2    20    21    1
     3    20    14    1
     4    14    15   ar
     5    15    16   ar
     6    16    13    1
     7    13     7    1
     8     7     8    1
     9     7     9   am
    10     9    10    2
    11     9    11   am
    12    11     6    1
    13     6    22    1
    14    22    23    1
    15    23    24    1
    16     6     2    1
    17     2     3    2
    18     2     4   am
    19     4     1    1
    20     1    27    1
    21    27    28    1
    22    29    28    1
    23    29    41    1
    24    41    42    1
    25    42    43   ar
    26    43    44   ar
    27    44    45   ar
    28    45    46   ar
    29    46    47   ar
    30    29    30    1
    31    30    31   am
    32    31    32    2
    33    31    34    1
    34    34    35    1
    35    35    36    1
    36    36    37   ar
    37    37    38   ar
    38    38    39   ar
    39    39    40   ar
    40     1    48    1
    41    48    49    1
    42    49    50   ar
    43    50    51   ar
    44    51    52   ar
    45    52    53   ar
    46    53    54   ar
    47    16    17   ar
    48    17    18   ar
    49    18    14   ar
    50    47    42   ar
    51    40    36   ar
    52    54    49   ar
    53    11    12    1
    54    24    25    1
    55    24    26    1
    56     4     5    1
    57    30    33    1
@<TRIPOS>MOLECULE
*****
 54 57 0 0 0
SMALL
GASTEIGER

@<TRIPOS>ATOM
      1 C          61.9670   88.0989   11.2531 C.3     1  UNL1        0.0760
      2 C          63.3347   89.8679   12.5762 C.2     1  UNL1        0.2404
      3 O          63.3307   90.7683   11.3765 O.2     1  UNL1       -0.2733
      4 N          62.6528   88.5332   12.5145 N.am    1  UNL1       -0.3043
      5 H          62.6555   87.9422   13.3019 H       1  UNL1        0.1494
      6 C          64.0205   90.3021   13.8375 C.3     1  UNL1        0.1511
      7 N          67.0076   92.8553   14.3928 N.am    1  UNL1       -0.2567
      8 C          68.4194   92.8559   14.8997 C.3     1  UNL1        0.1168
      9 C          66.2200   91.5790   14.3686 C.2     1  UNL1        0.3046
     10 O          66.8441   90.3032   14.8513 O.2     1  UNL1       -0.2526
     11 N          64.8082   91.5785   13.8617 N.am    1  UNL1       -0.2824
     12 H          64.3986   92.4158   13.5449 H       1  UNL1        0.1514
     13 C          66.3835   94.1310   13.9102 C.3     1  UNL1        0.1413
     14 C          67.1258   94.5484   10.1233 C.ar    1  UNL1        0.0875
     15 N          67.1423   93.7280   11.3789 N.ar    1  UNL1       -0.2453
     16 C          66.5591   94.5589   12.4832 C.ar    1  UNL1        0.0858
     17 C          66.1822   95.8929   11.9100 C.ar    1  UNL1        0.0530
     18 S          66.5324   95.8864   10.4515 S.2     1  UNL1       -0.0705
     19 C          67.3032   94.9273    7.5591 C.3     1  UNL1        0.0069
     20 C          67.6166   94.1081    8.7759 C.3     1  UNL1        0.0465
     21 C          68.4208   92.8486    8.6454 C.3     1  UNL1        0.0069
     22 C          63.9188   89.4600   15.0746 C.3     1  UNL1        0.0458
     23 C          63.4273   90.0657   16.3559 C.3     1  UNL1        0.0674
     24 N          63.4097   91.5563   16.5225 N.3     1  UNL1       -0.3211
     25 H          64.3665   91.9097   16.5226 H       1  UNL1        0.1189
     26 H          62.9592   91.7944   17.4061 H       1  UNL1        0.1189
     27 C          62.5753   87.0257   10.3999 C.3     1  UNL1        0.0216
     28 C          62.0643   85.6181   10.4877 C.3     1  UNL1        0.0217
     29 C          62.7570   84.6224   11.3702 C.3     1  UNL1        0.0792
     30 N          63.3306   85.0578   12.6861 N.am    1  UNL1       -0.2720
     31 C          64.6197   84.4666   13.1748 C.2     1  UNL1        0.4019
     32 O          65.3351   83.4400   12.3476 O.2     1  UNL1       -0.2264
     33 H          62.8610   85.7316   13.2290 H       1  UNL1        0.1527
     34 O          65.1932   84.9019   14.4906 O.3     1  UNL1       -0.4291
     35 C          64.5515   84.4589   15.7719 C.3     1  UNL1        0.2447
     36 C          63.3855   85.2204   16.3292 C.ar    1  UNL1        0.0714
     37 C          61.9378   84.9451   16.0496 C.ar    1  UNL1        0.1053
     38 N          61.1201   85.9455   16.8116 N.ar    1  UNL1       -0.2350
     39 C          62.0625   86.8391   17.5622 C.ar    1  UNL1        0.1343
     40 S          63.4626   86.3909   17.2641 S.2     1  UNL1       -0.0652
     41 C          62.8761   83.1913   10.9369 C.3     1  UNL1        0.0460
     42 C          62.5665   82.0867   11.9034 C.ar    1  UNL1       -0.0205
     43 C          61.9451   82.4042   13.2312 C.ar    1  UNL1       -0.0042
     44 C          61.6355   81.2996   14.1976 C.ar    1  UNL1       -0.0003
     45 C          61.9473   79.8776   13.8362 C.ar    1  UNL1       -0.0000
     46 C          62.5687   79.5601   12.5084 C.ar    1  UNL1       -0.0003
     47 C          62.8783   80.6647   11.5420 C.ar    1  UNL1       -0.0042
     48 C          60.6727   88.7381   10.8450 C.3     1  UNL1        0.0459
     49 C          60.1115   88.4879    9.4766 C.ar    1  UNL1       -0.0205
     50 C          59.5033   87.1569    9.1471 C.ar    1  UNL1       -0.0042
     51 C          58.9421   86.9067    7.7788 C.ar    1  UNL1       -0.0003
     52 C          58.9891   87.9877    6.7398 C.ar    1  UNL1       -0.0000
     53 C          59.5973   89.3187    7.0692 C.ar    1  UNL1       -0.0003
     54 C          60.1585   89.5688    8.4376 C.ar    1  UNL1       -0.0042
@<TRIPOS>BOND
     1    19    20    1
     2    20    21    1
     3    20    14    1
     4    14    15   ar
     5    15    16   ar
     6    16    13    1
     7    13     7    1
     8     7     8    1
     9     7     9   am
    10     9    10    2
    11     9    11   am
    12    11     6    1
    13     6    22    1
    14    22    23    1
    15    23    24    1
    16     6     2    1
    17     2     3    2
    18     2     4   am
    19     4     1    1
    20     1    27    1
    21    27    28    1
    22    29    28    1
    23    29    41    1
    24    41    42    1
    25    42    43   ar
    26    43    44   ar
    27    44    45   ar
    28    45    46   ar
    29    46    47   ar
    30    29    30    1
    31    30    31   am
    32    31    32    2
    33    31    34    1
    34    34    35    1
    35    35    36    1
    36    36    37   ar
    37    37    38   ar
    38    38    39   ar
    39    39    40   ar
    40     1    48    1
    41    48    49    1
    42    49    50   ar
    43    50    51   ar
    44    51    52   ar
    45    52    53   ar
    46    53    54   ar
    47    16    17   ar
    48    17    18   ar
    49    18    14   ar
    50    47    42   ar
    51    40    36   ar
    52    54    49   ar
    53    11    12    1
    54    24    25    1
    55    24    26    1
    56     4     5    1
    57    30    33    1
@<TRIPOS>MOLECULE
*****
 54 57 0 0 0
SMALL
GASTEIGER

@<TRIPOS>ATOM
      1 C          62.2654   88.8893   10.9879 C.3     1  UNL1        0.0760
      2 C          60.3058   88.5367    9.3188 C.2     1  UNL1        0.2404
      3 O          59.3288   88.5831   10.4559 O.2     1  UNL1       -0.2733
      4 N          61.7742   88.6898    9.5847 N.am    1  UNL1       -0.3043
      5 H          62.4154   88.6593    8.8383 H       1  UNL1        0.1494
      6 C          59.8146   88.3371    7.9156 C.3     1  UNL1        0.1511
      7 N          58.8217   91.1371    5.2842 N.am    1  UNL1       -0.2567
      8 C          57.5890   91.7167    4.6560 C.3     1  UNL1        0.1168
      9 C          58.7019   90.0270    6.2857 C.2     1  UNL1        0.3046
     10 O          57.3494   89.4964    6.6591 O.2     1  UNL1       -0.2526
     11 N          59.9345   89.4474    6.9140 N.am    1  UNL1       -0.2824
     12 H          60.8221   89.7956    6.6690 H       1  UNL1        0.1514
     13 C          60.1741   91.6677    4.9109 C.3     1  UNL1        0.1413
     14 C          59.9809   93.4904    1.4895 C.ar    1  UNL1        0.0875
     15 N          59.3328   92.9939    2.7478 N.ar    1  UNL1       -0.2453
     16 C          60.3839   92.3118    3.5725 C.ar    1  UNL1        0.0858
     17 C          61.6815   92.3868    2.8238 C.ar    1  UNL1        0.0530
     18 S          61.4325   93.1152    1.5364 S.2     1  UNL1       -0.0705
     19 C          58.3912   93.4996   -0.5655 C.3     1  UNL1        0.0069
     20 C          59.2974   94.2320    0.3791 C.3     1  UNL1        0.0465
     21 C          59.5201   95.7061    0.2134 C.3     1  UNL1        0.0069
     22 C          59.2036   87.0275    7.5140 C.3     1  UNL1        0.0458
     23 C          60.0428   85.7844    7.4894 C.3     1  UNL1        0.0674
     24 N          61.4812   85.8422    7.9110 N.3     1  UNL1       -0.3211
     25 H          62.0062   86.4157    7.2509 H       1  UNL1        0.1189
     26 H          61.8693   84.8990    7.9257 H       1  UNL1        0.1189
     27 C          62.7806   87.7213   11.7754 C.3     1  UNL1        0.0216
     28 C          62.3272   86.3315   11.4392 C.3     1  UNL1        0.0217
     29 C          62.7832   85.1714   12.2736 C.3     1  UNL1        0.0792
     30 N          62.8197   85.2911   13.7684 N.am    1  UNL1       -0.2720
     31 C          64.1020   85.0514   14.5089 C.2     1  UNL1        0.4019
     32 O          65.3477   84.6920   13.7547 O.2     1  UNL1       -0.2264
     33 H          62.0021   85.5270   14.2634 H       1  UNL1        0.1527
     34 O          64.1385   85.1712   16.0037 O.3     1  UNL1       -0.4291
     35 C          63.2725   86.1811   16.6965 C.3     1  UNL1        0.2447
     36 C          63.4123   87.6385   16.3705 C.ar    1  UNL1        0.0714
     37 C          62.8711   88.7791   17.1806 C.ar    1  UNL1        0.1053
     38 N          63.2421   90.0568   16.4880 N.ar    1  UNL1       -0.2350
     39 C          64.0126   89.7059   15.2497 C.ar    1  UNL1        0.1343
     40 S          64.1178   88.2114   15.1772 S.2     1  UNL1       -0.0652
     41 C          63.2027   83.8916   11.6133 C.3     1  UNL1        0.0460
     42 C          62.8158   82.5741   12.2172 C.ar    1  UNL1       -0.0205
     43 C          62.1312   82.5327   13.5511 C.ar    1  UNL1       -0.0042
     44 C          61.7443   81.2153   14.1550 C.ar    1  UNL1       -0.0003
     45 C          62.0421   79.9393   13.4248 C.ar    1  UNL1       -0.0000
     46 C          62.7267   79.9807   12.0909 C.ar    1  UNL1       -0.0003
     47 C          63.1135   81.2981   11.4870 C.ar    1  UNL1       -0.0042
     48 C          62.2413   90.2570   11.6036 C.3     1  UNL1        0.0459
     49 C          63.4834   91.0979   11.6112 C.ar    1  UNL1       -0.0205
     50 C          64.2220   91.3332   12.8955 C.ar    1  UNL1       -0.0042
     51 C          65.4640   92.1742   12.9031 C.ar    1  UNL1       -0.0003
     52 C          65.9675   92.7799   11.6264 C.ar    1  UNL1       -0.0000
     53 C          65.2289   92.5446   10.3423 C.ar    1  UNL1       -0.0003
     54 C          63.9869   91.7036   10.3347 C.ar    1  UNL1       -0.0042
@<TRIPOS>BOND
     1    19    20    1
     2    20    21    1
     3    20    14    1
     4    14    15   ar
     5    15    16   ar
     6    16    13    1
     7    13     7    1
     8     7     8    1
     9     7     9   am
    10     9    10    2
    11     9    11   am
    12    11     6    1
    13     6    22    1
    14    22    23    1
    15    23    24    1
    16     6     2    1
    17     2     3    2
    18     2     4   am
    19     4     1    1
    20     1    27    1
    21    27    28    1
    22    29    28    1
    23    29    41    1
    24    41    42    1
    25    42    43   ar
    26    43    44   ar
    27    44    45   ar
    28    45    46   ar
    29    46    47   ar
    30    29    30    1
    31    30    31   am
    32    31    32    2
    33    31    34    1
    34    34    35    1
    35    35    36    1
    36    36    37   ar
    37    37    38   ar
    38    38    39   ar
    39    39    40   ar
    40     1    48    1
    41    48    49    1
    42    49    50   ar
    43    50    51   ar
    44    51    52   ar
    45    52    53   ar
    46    53    54   ar
    47    16    17   ar
    48    17    18   ar
    49    18    14   ar
    50    47    42   ar
    51    40    36   ar
    52    54    49   ar
    53    11    12    1
    54    24    25    1
    55    24    26    1
    56     4     5    1
    57    30    33    1
@<TRIPOS>MOLECULE
*****
 54 57 0 0 0
SMALL
GASTEIGER

@<TRIPOS>ATOM
      1 C          62.4793   86.6241   11.7395 C.3     1  UNL1        0.0760
      2 C          61.6355   88.9812   11.0451 C.2     1  UNL1        0.2404
      3 O          60.7897   89.0429   12.2822 O.2     1  UNL1       -0.2733
      4 N          62.4804   87.7718   10.7737 N.am    1  UNL1       -0.3043
      5 H          63.0356   87.7312    9.9616 H       1  UNL1        0.1494
      6 C          61.6366   90.1288   10.0792 C.3     1  UNL1        0.1511
      7 N          59.2706   88.8935    7.1422 N.am    1  UNL1       -0.2567
      8 C          58.8583   87.6116    6.4814 C.3     1  UNL1        0.1168
      9 C          60.2474   88.8702    8.2803 C.2     1  UNL1        0.3046
     10 O          60.8119   87.5650    8.7576 O.2     1  UNL1       -0.2526
     11 N          60.6597   90.1522    8.9411 N.am    1  UNL1       -0.2824
     12 H          60.2892   91.0088    8.6278 H       1  UNL1        0.1514
     13 C          58.7061   90.1987    6.6649 C.3     1  UNL1        0.1413
     14 C          61.0206   91.6725    3.9196 C.ar    1  UNL1        0.0875
     15 N          60.7722   90.7192    5.0507 N.ar    1  UNL1       -0.2453
     16 C          59.3723   90.9384    5.5428 C.ar    1  UNL1        0.0858
     17 C          58.7555   92.0273    4.7158 C.ar    1  UNL1        0.0530
     18 S          59.7741   92.4810    3.7125 S.2     1  UNL1       -0.0705
     19 C          62.4613   92.9172    2.1518 C.3     1  UNL1        0.0069
     20 C          62.2922   91.7958    3.1334 C.3     1  UNL1        0.0465
     21 C          63.3945   90.7975    3.3289 C.3     1  UNL1        0.0069
     22 C          62.6144   91.2532   10.2514 C.3     1  UNL1        0.0458
     23 C          63.7108   91.1443   11.2694 C.3     1  UNL1        0.0674
     24 N          63.4615   91.5635   12.6878 N.3     1  UNL1       -0.3211
     25 H          63.2970   92.5696   12.7211 H       1  UNL1        0.1189
     26 H          64.2750   91.3330   13.2584 H       1  UNL1        0.1189
     27 C          63.1910   86.7494   13.0539 C.3     1  UNL1        0.0216
     28 C          63.9803   87.9865   13.3645 C.3     1  UNL1        0.0217
     29 C          64.2359   88.3748   14.7907 C.3     1  UNL1        0.0792
     30 N          64.5215   89.8056   15.1388 N.am    1  UNL1       -0.2720
     31 C          63.5819   90.5625   16.0302 C.2     1  UNL1        0.4019
     32 O          62.3569   89.8886   16.5734 O.2     1  UNL1       -0.2264
     33 H          65.3255   90.2480   14.7823 H       1  UNL1        0.1527
     34 O          63.8674   91.9933   16.3783 O.3     1  UNL1       -0.4291
     35 C          65.2341   92.3919   16.8510 C.3     1  UNL1        0.2447
     36 C          66.3431   92.5868   15.8600 C.ar    1  UNL1        0.0714
     37 C          66.1831   93.0059   14.4287 C.ar    1  UNL1        0.1053
     38 N          67.5481   93.0749   13.8105 N.ar    1  UNL1       -0.2350
     39 C          68.5517   92.6985   14.8598 C.ar    1  UNL1        0.1343
     40 S          67.8070   92.3968   16.1264 S.2     1  UNL1       -0.0652
     41 C          64.2060   87.3322   15.8687 C.3     1  UNL1        0.0460
     42 C          64.0608   85.8836   15.5073 C.ar    1  UNL1       -0.0205
     43 C          62.8343   85.1264   15.9223 C.ar    1  UNL1       -0.0042
     44 C          62.6891   83.6779   15.5609 C.ar    1  UNL1       -0.0003
     45 C          63.7705   82.9866   14.7846 C.ar    1  UNL1       -0.0000
     46 C          64.9970   83.7438   14.3696 C.ar    1  UNL1       -0.0003
     47 C          65.1422   85.1923   14.7309 C.ar    1  UNL1       -0.0042
     48 C          61.7665   85.3511   11.3909 C.3     1  UNL1        0.0459
     49 C          62.5486   84.0913   11.1650 C.ar    1  UNL1       -0.0205
     50 C          63.6981   84.0848   10.2012 C.ar    1  UNL1       -0.0042
     51 C          64.4802   82.8249    9.9752 C.ar    1  UNL1       -0.0003
     52 C          64.1129   81.5716   10.7131 C.ar    1  UNL1       -0.0000
     53 C          62.9636   81.5781   11.6768 C.ar    1  UNL1       -0.0003
     54 C          62.1814   82.8380   11.9027 C.ar    1  UNL1       -0.0042
@<TRIPOS>BOND
     1    19    20    1
     2    20    21    1
     3    20    14    1
     4    14    15   ar
     5    15    16   ar
     6    16    13    1
     7    13     7    1
     8     7     8    1
     9     7     9   am
    10     9    10    2
    11     9    11   am
    12    11     6    1
    13     6    22    1
    14    22    23    1
    15    23    24    1
    16     6     2    1
    17     2     3    2
    18     2     4   am
    19     4     1    1
    20     1    27    1
    21    27    28    1
    22    29    28    1
    23    29    41    1
    24    41    42    1
    25    42    43   ar
    26    43    44   ar
    27    44    45   ar
    28    45    46   ar
    29    46    47   ar
    30    29    30    1
    31    30    31   am
    32    31    32    2
    33    31    34    1
    34    34    35    1
    35    35    36    1
    36    36    37   ar
    37    37    38   ar
    38    38    39   ar
    39    39    40   ar
    40     1    48    1
    41    48    49    1
    42    49    50   ar
    43    50    51   ar
    44    51    52   ar
    45    52    53   ar
    46    53    54   ar
    47    16    17   ar
    48    17    18   ar
    49    18    14   ar
    50    47    42   ar
    51    40    36   ar
    52    54    49   ar
    53    11    12    1
    54    24    25    1
    55    24    26    1
    56     4     5    1
    57    30    33    1
@<TRIPOS>MOLECULE
*****
 54 57 0 0 0
SMALL
GASTEIGER

@<TRIPOS>ATOM
      1 C          61.9133   88.6943   11.2358 C.3     1  UNL1        0.0760
      2 C          63.5442   90.2290   12.5530 C.2     1  UNL1        0.2404
      3 O          63.9057   90.9368   11.2809 O.2     1  UNL1       -0.2733
      4 N          62.5480   89.1077   12.5305 N.am    1  UNL1       -0.3043
      5 H          62.3108   88.6431   13.3654 H       1  UNL1        0.1494
      6 C          64.1789   90.6424   13.8477 C.3     1  UNL1        0.1511
      7 N          67.1810   93.1476   14.5272 N.am    1  UNL1       -0.2567
      8 C          68.5819   93.1199   15.0625 C.3     1  UNL1        0.1168
      9 C          66.3804   91.8812   14.4551 C.2     1  UNL1        0.3046
     10 O          66.9808   90.5870   14.9183 O.2     1  UNL1       -0.2526
     11 N          64.9795   91.9089   13.9198 N.am    1  UNL1       -0.2824
     12 H          64.5854   92.7583   13.6157 H       1  UNL1        0.1514
     13 C          66.5805   94.4418   14.0639 C.3     1  UNL1        0.1413
     14 C          67.0393   94.7366   10.2210 C.ar    1  UNL1        0.0875
     15 N          67.1672   93.9638   11.5002 N.ar    1  UNL1       -0.2453
     16 C          66.6423   94.8207   12.6139 C.ar    1  UNL1        0.0858
     17 C          66.1901   96.1231   12.0229 C.ar    1  UNL1        0.0530
     18 S          66.4354   96.0712   10.5440 S.2     1  UNL1       -0.0705
     19 C          68.2193   92.9830    8.7101 C.3     1  UNL1        0.0069
     20 C          67.4443   94.2588    8.8580 C.3     1  UNL1        0.0465
     21 C          67.0742   95.0566    7.6429 C.3     1  UNL1        0.0069
     22 C          64.0131   89.7894   15.0703 C.3     1  UNL1        0.0458
     23 C          63.4492   90.3821   16.3276 C.3     1  UNL1        0.0674
     24 N          63.5028   91.8649   16.5474 N.3     1  UNL1       -0.3211
     25 H          64.4747   92.1599   16.6407 H       1  UNL1        0.1189
     26 H          62.9926   92.1011   17.3984 H       1  UNL1        0.1189
     27 C          62.3529   87.4325   10.5543 C.3     1  UNL1        0.0216
     28 C          61.9615   86.0994   11.1196 C.3     1  UNL1        0.0217
     29 C          62.6517   84.8533   10.6492 C.3     1  UNL1        0.0792
     30 N          62.5846   83.6020   11.4737 N.am    1  UNL1       -0.2720
     31 C          63.7485   82.6560   11.4972 C.2     1  UNL1        0.4019
     32 O          64.9794   82.9613   10.6964 O.2     1  UNL1       -0.2264
     33 H          61.7766   83.4016   11.9993 H       1  UNL1        0.1527
     34 O          63.6813   81.4047   12.3217 O.3     1  UNL1       -0.4291
     35 C          63.6966   81.4914   13.8191 C.3     1  UNL1        0.2447
     36 C          63.4320   82.8029   14.4972 C.ar    1  UNL1        0.0714
     37 C          62.1058   83.2768   15.0135 C.ar    1  UNL1        0.1053
     38 N          62.3013   84.6377   15.6134 N.ar    1  UNL1       -0.2350
     39 C          63.7484   85.0048   15.4679 C.ar    1  UNL1        0.1343
     40 S          64.4471   83.8709   14.7780 S.2     1  UNL1       -0.0652
     41 C          63.4091   84.8587    9.3545 C.3     1  UNL1        0.0460
     42 C          62.6695   84.7683    8.0526 C.ar    1  UNL1       -0.0205
     43 C          61.1976   85.0532    8.0048 C.ar    1  UNL1       -0.0042
     44 C          60.4581   84.9629    6.7030 C.ar    1  UNL1       -0.0003
     45 C          61.1904   84.5875    5.4489 C.ar    1  UNL1       -0.0000
     46 C          62.6623   84.3026    5.4966 C.ar    1  UNL1       -0.0003
     47 C          63.4018   84.3930    6.7985 C.ar    1  UNL1       -0.0042
     48 C          60.8390   89.5428   10.6226 C.3     1  UNL1        0.0459
     49 C          60.1360   89.0810    9.3806 C.ar    1  UNL1       -0.0205
     50 C          60.2018   89.9073    8.1303 C.ar    1  UNL1       -0.0042
     51 C          59.4988   89.4455    6.8883 C.ar    1  UNL1       -0.0003
     52 C          58.7300   88.1574    6.8966 C.ar    1  UNL1       -0.0000
     53 C          58.6642   87.3313    8.1468 C.ar    1  UNL1       -0.0003
     54 C          59.3672   87.7931    9.3888 C.ar    1  UNL1       -0.0042
@<TRIPOS>BOND
     1    19    20    1
     2    20    21    1
     3    20    14    1
     4    14    15   ar
     5    15    16   ar
     6    16    13    1
     7    13     7    1
     8     7     8    1
     9     7     9   am
    10     9    10    2
    11     9    11   am
    12    11     6    1
    13     6    22    1
    14    22    23    1
    15    23    24    1
    16     6     2    1
    17     2     3    2
    18     2     4   am
    19     4     1    1
    20     1    27    1
    21    27    28    1
    22    29    28    1
    23    29    41    1
    24    41    42    1
    25    42    43   ar
    26    43    44   ar
    27    44    45   ar
    28    45    46   ar
    29    46    47   ar
    30    29    30    1
    31    30    31   am
    32    31    32    2
    33    31    34    1
    34    34    35    1
    35    35    36    1
    36    36    37   ar
    37    37    38   ar
    38    38    39   ar
    39    39    40   ar
    40     1    48    1
    41    48    49    1
    42    49    50   ar
    43    50    51   ar
    44    51    52   ar
    45    52    53   ar
    46    53    54   ar
    47    16    17   ar
    48    17    18   ar
    49    18    14   ar
    50    47    42   ar
    51    40    36   ar
    52    54    49   ar
    53    11    12    1
    54    24    25    1
    55    24    26    1
    56     4     5    1
    57    30    33    1
@<TRIPOS>MOLECULE
*****
 54 57 0 0 0
SMALL
GASTEIGER

@<TRIPOS>ATOM
      1 C          62.2527   88.7542   10.9641 C.3     1  UNL1        0.0760
      2 C          60.4033   89.1081    9.1739 C.2     1  UNL1        0.2404
      3 O          59.6171   89.9331   10.1492 O.2     1  UNL1       -0.2733
      4 N          61.7211   88.5186    9.5813 N.am    1  UNL1       -0.3043
      5 H          62.2371   87.9771    8.9412 H       1  UNL1        0.1494
      6 C          59.8717   88.8725    7.7912 C.3     1  UNL1        0.1511
      7 N          59.5557   91.4136    4.7592 N.am    1  UNL1       -0.2567
      8 C          58.4866   92.0982    3.9602 C.3     1  UNL1        0.1168
      9 C          59.1792   90.4854    5.8757 C.2     1  UNL1        0.3046
     10 O          57.7335   90.2417    6.1933 O.2     1  UNL1       -0.2526
     11 N          60.2483   89.8007    6.6746 N.am    1  UNL1       -0.2824
     12 H          61.1971   89.9606    6.4662 H       1  UNL1        0.1514
     13 C          61.0013   91.6571    4.4416 C.3     1  UNL1        0.1413
     14 C          62.6515   93.2417    1.3061 C.ar    1  UNL1        0.0875
     15 N          62.7156   92.3520    2.5120 N.ar    1  UNL1       -0.2453
     16 C          61.3805   92.3988    3.1941 C.ar    1  UNL1        0.0858
     17 C          60.4912   93.3174    2.4097 C.ar    1  UNL1        0.0530
     18 S          61.2766   93.8383    1.2428 S.2     1  UNL1       -0.0705
     19 C          65.1929   93.3820    0.7848 C.3     1  UNL1        0.0069
     20 C          63.7664   93.4910    0.3340 C.3     1  UNL1        0.0465
     21 C          63.4547   93.8493   -1.0888 C.3     1  UNL1        0.0069
     22 C          58.9636   87.7087    7.5250 C.3     1  UNL1        0.0458
     23 C          59.4563   86.3083    7.7402 C.3     1  UNL1        0.0674
     24 N          60.9255   86.0124    7.6788 N.3     1  UNL1       -0.3211
     25 H          61.2644   86.1686    6.7295 H       1  UNL1        0.1189
     26 H          61.0879   85.0405    7.9422 H       1  UNL1        0.1189
     27 C          62.8021   87.6088   11.7616 C.3     1  UNL1        0.0216
     28 C          62.2572   86.2258   11.5612 C.3     1  UNL1        0.0217
     29 C          63.0092   85.0397   12.0882 C.3     1  UNL1        0.0792
     30 N          62.7266   83.6705   11.5446 N.am    1  UNL1       -0.2720
     31 C          63.7443   82.9797   10.6859 C.2     1  UNL1        0.4019
     32 O          65.0445   83.6581   10.3709 O.2     1  UNL1       -0.2264
     33 H          61.8733   83.2252   11.7513 H       1  UNL1        0.1527
     34 O          63.4617   81.6106   10.1423 O.3     1  UNL1       -0.4291
     35 C          62.9702   80.5275   11.0562 C.3     1  UNL1        0.2447
     36 C          62.7672   80.8118   12.5149 C.ar    1  UNL1        0.0714
     37 C          63.8470   81.0964   13.5164 C.ar    1  UNL1        0.1053
     38 N          63.1958   81.3220   14.8487 N.ar    1  UNL1       -0.2350
     39 C          61.7135   81.1768   14.6707 C.ar    1  UNL1        0.1343
     40 S          61.4486   80.8615   13.2283 S.2     1  UNL1       -0.0652
     41 C          64.0438   85.2228   13.1587 C.3     1  UNL1        0.0460
     42 C          63.6322   85.6651   14.5317 C.ar    1  UNL1       -0.0205
     43 C          64.0405   87.0167   15.0380 C.ar    1  UNL1       -0.0042
     44 C          63.6289   87.4590   16.4110 C.ar    1  UNL1       -0.0003
     45 C          62.8090   86.5496   17.2775 C.ar    1  UNL1       -0.0000
     46 C          62.4008   85.1980   16.7712 C.ar    1  UNL1       -0.0003
     47 C          62.8124   84.7558   15.3983 C.ar    1  UNL1       -0.0042
     48 C          62.2349   90.1353   11.5492 C.3     1  UNL1        0.0459
     49 C          63.5019   90.7449   12.0716 C.ar    1  UNL1       -0.0205
     50 C          64.2763   91.7088   11.2223 C.ar    1  UNL1       -0.0042
     51 C          65.5434   92.3184   11.7447 C.ar    1  UNL1       -0.0003
     52 C          66.0361   91.9641   13.1165 C.ar    1  UNL1       -0.0000
     53 C          65.2617   91.0002   13.9658 C.ar    1  UNL1       -0.0003
     54 C          63.9947   90.3906   13.4433 C.ar    1  UNL1       -0.0042
@<TRIPOS>BOND
     1    19    20    1
     2    20    21    1
     3    20    14    1
     4    14    15   ar
     5    15    16   ar
     6    16    13    1
     7    13     7    1
     8     7     8    1
     9     7     9   am
    10     9    10    2
    11     9    11   am
    12    11     6    1
    13     6    22    1
    14    22    23    1
    15    23    24    1
    16     6     2    1
    17     2     3    2
    18     2     4   am
    19     4     1    1
    20     1    27    1
    21    27    28    1
    22    29    28    1
    23    29    41    1
    24    41    42    1
    25    42    43   ar
    26    43    44   ar
    27    44    45   ar
    28    45    46   ar
    29    46    47   ar
    30    29    30    1
    31    30    31   am
    32    31    32    2
    33    31    34    1
    34    34    35    1
    35    35    36    1
    36    36    37   ar
    37    37    38   ar
    38    38    39   ar
    39    39    40   ar
    40     1    48    1
    41    48    49    1
    42    49    50   ar
    43    50    51   ar
    44    51    52   ar
    45    52    53   ar
    46    53    54   ar
    47    16    17   ar
    48    17    18   ar
    49    18    14   ar
    50    47    42   ar
    51    40    36   ar
    52    54    49   ar
    53    11    12    1
    54    24    25    1
    55    24    26    1
    56     4     5    1
    57    30    33    1
@<TRIPOS>MOLECULE
*****
 54 57 0 0 0
SMALL
GASTEIGER

@<TRIPOS>ATOM
      1 C          60.6046   92.9125    2.8210 C.3     1  UNL1        0.0760
      2 C          60.1640   91.2838    4.7967 C.2     1  UNL1        0.2404
      3 O          61.6310   90.9805    4.8739 O.2     1  UNL1       -0.2733
      4 N          59.6508   92.2498    3.7703 N.am    1  UNL1       -0.3043
      5 H          58.6880   92.4488    3.7196 H       1  UNL1        0.1494
      6 C          59.2103   90.6211    5.7460 C.3     1  UNL1        0.1511
      7 N          60.0930   88.9602    9.2406 N.am    1  UNL1       -0.2567
      8 C          60.2482   87.5939    9.8397 C.3     1  UNL1        0.1168
      9 C          59.7292   89.1075    7.7929 C.2     1  UNL1        0.3046
     10 O          59.5208   87.8883    6.9442 O.2     1  UNL1       -0.2526
     11 N          59.5740   90.4739    7.1938 N.am    1  UNL1       -0.2824
     12 H          59.7108   91.2740    7.7508 H       1  UNL1        0.1514
     13 C          60.3014   90.1794   10.0893 C.3     1  UNL1        0.1413
     14 C          63.1323   90.0928   12.7433 C.ar    1  UNL1        0.0875
     15 N          61.7571   89.7111   12.2818 N.ar    1  UNL1       -0.2453
     16 C          61.5414   90.3095   10.9233 C.ar    1  UNL1        0.0858
     17 C          62.7833   91.0610   10.5453 C.ar    1  UNL1        0.0530
     18 S          63.7666   90.9271   11.6701 S.2     1  UNL1       -0.0705
     19 C          63.9008   90.7238   15.1436 C.3     1  UNL1        0.0069
     20 C          63.7627   89.7077   14.0489 C.3     1  UNL1        0.0465
     21 C          64.2549   88.3066   14.2597 C.3     1  UNL1        0.0069
     22 C          57.8928   90.1056    5.2475 C.3     1  UNL1        0.0458
     23 C          56.6984   91.0123    5.2098 C.3     1  UNL1        0.0674
     24 N          56.8855   92.4935    5.0655 N.3     1  UNL1       -0.3211
     25 H          57.3516   92.8598    5.8955 H       1  UNL1        0.1189
     26 H          55.9756   92.9425    4.9605 H       1  UNL1        0.1189
     27 C          60.1139   93.9792    1.8876 C.3     1  UNL1        0.0216
     28 C          59.0547   93.6602    0.8747 C.3     1  UNL1        0.0217
     29 C          59.3397   92.6815   -0.2258 C.3     1  UNL1        0.0792
     30 N          58.2150   91.9198   -0.8620 N.am    1  UNL1       -0.2720
     31 C          56.9830   92.6435   -1.3188 C.2     1  UNL1        0.4019
     32 O          56.8758   94.1288   -1.1393 O.2     1  UNL1       -0.2264
     33 H          58.2853   90.9449   -0.9797 H       1  UNL1        0.1527
     34 O          55.8582   91.8818   -1.9549 O.3     1  UNL1       -0.4291
     35 C          56.0240   91.3100   -3.3317 C.3     1  UNL1        0.2447
     36 C          56.3314   92.2151   -4.4877 C.ar    1  UNL1        0.0714
     37 C          55.9647   93.6658   -4.5935 C.ar    1  UNL1        0.1053
     38 N          56.4661   94.1757   -5.9120 N.ar    1  UNL1       -0.2350
     39 C          57.1427   93.0402   -6.6212 C.ar    1  UNL1        0.1343
     40 S          57.0594   91.8285   -5.7409 S.2     1  UNL1       -0.0652
     41 C          60.7495   92.4645   -0.6900 C.3     1  UNL1        0.0460
     42 C          61.2898   93.2573   -1.8432 C.ar    1  UNL1       -0.0205
     43 C          62.7714   93.4135   -2.0172 C.ar    1  UNL1       -0.0042
     44 C          63.3117   94.2062   -3.1703 C.ar    1  UNL1       -0.0003
     45 C          62.3703   94.8427   -4.1493 C.ar    1  UNL1       -0.0000
     46 C          60.8887   94.6866   -3.9753 C.ar    1  UNL1       -0.0003
     47 C          60.3484   93.8939   -2.8222 C.ar    1  UNL1       -0.0042
     48 C          62.0491   92.5084    2.8052 C.3     1  UNL1        0.0459
     49 C          63.0418   93.3041    2.0107 C.ar    1  UNL1       -0.0205
     50 C          62.7880   94.7560    1.7318 C.ar    1  UNL1       -0.0042
     51 C          63.7808   95.5518    0.9373 C.ar    1  UNL1       -0.0003
     52 C          65.0273   94.8957    0.4217 C.ar    1  UNL1       -0.0000
     53 C          65.2810   93.4439    0.7005 C.ar    1  UNL1       -0.0003
     54 C          64.2883   92.6481    1.4950 C.ar    1  UNL1       -0.0042
@<TRIPOS>BOND
     1    19    20    1
     2    20    21    1
     3    20    14    1
     4    14    15   ar
     5    15    16   ar
     6    16    13    1
     7    13     7    1
     8     7     8    1
     9     7     9   am
    10     9    10    2
    11     9    11   am
    12    11     6    1
    13     6    22    1
    14    22    23    1
    15    23    24    1
    16     6     2    1
    17     2     3    2
    18     2     4   am
    19     4     1    1
    20     1    27    1
    21    27    28    1
    22    29    28    1
    23    29    41    1
    24    41    42    1
    25    42    43   ar
    26    43    44   ar
    27    44    45   ar
    28    45    46   ar
    29    46    47   ar
    30    29    30    1
    31    30    31   am
    32    31    32    2
    33    31    34    1
    34    34    35    1
    35    35    36    1
    36    36    37   ar
    37    37    38   ar
    38    38    39   ar
    39    39    40   ar
    40     1    48    1
    41    48    49    1
    42    49    50   ar
    43    50    51   ar
    44    51    52   ar
    45    52    53   ar
    46    53    54   ar
    47    16    17   ar
    48    17    18   ar
    49    18    14   ar
    50    47    42   ar
    51    40    36   ar
    52    54    49   ar
    53    11    12    1
    54    24    25    1
    55    24    26    1
    56     4     5    1
    57    30    33    1
