@<TRIPOS>MOLECULE
*****
 28 32 0 0 0
SMALL
GASTEIGER

@<TRIPOS>ATOM
      1 O          63.5061   87.4011   16.2493 O.2     1  UNL1       -0.2526
      2 C          63.6727   87.0626   14.7975 C.2     1  UNL1        0.3039
      3 N          64.0451   88.1336   13.8157 N.am    1  UNL1       -0.2901
      4 N          63.4667   85.6530   14.3276 N.am    1  UNL1       -0.2640
      5 C          63.0942   84.5820   15.3095 C.3     1  UNL1        0.0985
      6 C          62.8883   83.1725   14.8396 C.3     1  UNL1        0.0616
      7 C          63.0548   82.8340   13.3878 C.3     1  UNL1        0.1367
      8 C          62.6823   81.7629   14.3696 C.3     1  UNL1        0.0449
      9 C          62.4763   80.3534   13.8997 C.3     1  UNL1        0.0330
     10 C          62.6429   80.0150   12.4479 C.ar    1  UNL1        0.0119
     11 C          62.4369   78.6054   11.9780 C.ar    1  UNL1       -0.0013
     12 C          62.6034   78.2669   10.5262 C.ar    1  UNL1       -0.0001
     13 C          62.9759   79.3381    9.5443 C.ar    1  UNL1        0.0031
     14 C          63.1819   80.7475   10.0142 C.ar    1  UNL1        0.0366
     15 C          63.0153   81.0860   11.4660 C.ar    1  UNL1        0.1342
     16 O          63.2213   82.4956   11.9360 O.3     1  UNL1       -0.4828
     17 C          63.4273   83.9051   12.4059 C.3     1  UNL1        0.0616
     18 C          63.6332   85.3146   12.8758 C.3     1  UNL1        0.0985
     19 H          64.1544   87.9115   12.8628 H       1  UNL1        0.1509
     20 C          64.2511   89.5432   14.2856 C.3     1  UNL1        0.0774
     21 C          64.2013   90.5681   15.3796 C.3     1  UNL1        0.0259
     22 C          64.6576   90.9596   14.0054 C.3     1  UNL1        0.0420
     23 C          65.1558   92.0034   13.0503 C.ar    1  UNL1       -0.0208
     24 C          64.7686   91.9411   11.6025 C.ar    1  UNL1       -0.0042
     25 C          65.2668   92.9849   10.6473 C.ar    1  UNL1       -0.0003
     26 C          66.1523   94.0910   11.1400 C.ar    1  UNL1       -0.0000
     27 C          66.5395   94.1532   12.5878 C.ar    1  UNL1       -0.0003
     28 C          66.0413   93.1093   13.5430 C.ar    1  UNL1       -0.0042
@<TRIPOS>BOND
     1     1     2    2
     2     2     3   am
     3    20     3    1
     4    20    21    1
     5    21    22    1
     6    22    23    1
     7    23    24   ar
     8    24    25   ar
     9    25    26   ar
    10    26    27   ar
    11    27    28   ar
    12     2     4   am
    13     4     5    1
    14     5     6    1
    15     6     7    1
    16     7     8    1
    17     8     9    1
    18     9    10    1
    19    10    11   ar
    20    11    12   ar
    21    12    13   ar
    22    13    14   ar
    23    14    15   ar
    24    15    16    1
    25     7    17    1
    26    17    18    1
    27    22    20    1
    28    28    23   ar
    29    18     4    1
    30    16     7    1
    31    15    10   ar
    32     3    19    1
@<TRIPOS>MOLECULE
*****
 28 32 0 0 0
SMALL
GASTEIGER

@<TRIPOS>ATOM
      1 O          63.2736   87.5402   16.8319 O.2     1  UNL1       -0.2526
      2 C          63.5403   87.2806   15.3788 C.2     1  UNL1        0.3039
      3 N          63.9890   88.4000   14.4870 N.am    1  UNL1       -0.2901
      4 N          63.3581   85.9015   14.8175 N.am    1  UNL1       -0.2640
      5 C          62.9093   84.7821   15.7094 C.3     1  UNL1        0.0985
      6 C          62.7271   83.4031   15.1481 C.3     1  UNL1        0.0616
      7 C          62.9937   83.1435   13.6950 C.3     1  UNL1        0.1367
      8 C          62.5449   82.0239   14.5868 C.3     1  UNL1        0.0449
      9 C          62.3628   80.6449   14.0256 C.3     1  UNL1        0.0330
     10 C          62.6294   80.3853   12.5725 C.ar    1  UNL1        0.0119
     11 C          62.4472   79.0062   12.0112 C.ar    1  UNL1       -0.0013
     12 C          62.7138   78.7466   10.5581 C.ar    1  UNL1       -0.0001
     13 C          63.1626   79.8662    9.6662 C.ar    1  UNL1        0.0031
     14 C          63.3448   81.2452   10.2275 C.ar    1  UNL1        0.0366
     15 C          63.0782   81.5048   11.6806 C.ar    1  UNL1        0.1342
     16 O          63.2604   82.8839   12.2419 O.3     1  UNL1       -0.4828
     17 C          63.4425   84.2629   12.8032 C.3     1  UNL1        0.0616
     18 C          63.6247   85.6419   13.3644 C.3     1  UNL1        0.0985
     19 H          64.1640   88.2297   13.5332 H       1  UNL1        0.1509
     20 C          64.1712   89.7792   15.0482 C.3     1  UNL1        0.0774
     21 C          63.6170   90.9716   15.7698 C.3     1  UNL1        0.0259
     22 C          65.0410   90.9753   15.2988 C.3     1  UNL1        0.0420
     23 C          66.3654   91.6679   15.1714 C.ar    1  UNL1       -0.0208
     24 C          66.7795   92.6877   16.1905 C.ar    1  UNL1       -0.0042
     25 C          68.1039   93.3803   16.0632 C.ar    1  UNL1       -0.0003
     26 C          69.0143   93.0531   14.9168 C.ar    1  UNL1       -0.0000
     27 C          68.6002   92.0333   13.8977 C.ar    1  UNL1       -0.0003
     28 C          67.2757   91.3407   14.0251 C.ar    1  UNL1       -0.0042
@<TRIPOS>BOND
     1     1     2    2
     2     2     3   am
     3    20     3    1
     4    20    21    1
     5    21    22    1
     6    22    23    1
     7    23    24   ar
     8    24    25   ar
     9    25    26   ar
    10    26    27   ar
    11    27    28   ar
    12     2     4   am
    13     4     5    1
    14     5     6    1
    15     6     7    1
    16     7     8    1
    17     8     9    1
    18     9    10    1
    19    10    11   ar
    20    11    12   ar
    21    12    13   ar
    22    13    14   ar
    23    14    15   ar
    24    15    16    1
    25     7    17    1
    26    17    18    1
    27    22    20    1
    28    28    23   ar
    29    18     4    1
    30    16     7    1
    31    15    10   ar
    32     3    19    1
@<TRIPOS>MOLECULE
*****
 28 32 0 0 0
SMALL
GASTEIGER

@<TRIPOS>ATOM
      1 O          60.6737   90.4752    9.0047 O.2     1  UNL1       -0.2526
      2 C          60.5270   89.0219    8.6637 C.2     1  UNL1        0.3039
      3 N          59.7917   88.6134    7.4218 N.am    1  UNL1       -0.2901
      4 N          61.1157   87.9770    9.5647 N.am    1  UNL1       -0.2640
      5 C          61.8510   88.3854   10.8066 C.3     1  UNL1        0.0985
      6 C          62.4396   87.3405   11.7075 C.3     1  UNL1        0.0616
      7 C          62.2930   85.8872   11.3665 C.3     1  UNL1        0.1367
      8 C          63.0283   86.2956   12.6085 C.3     1  UNL1        0.0449
      9 C          63.6170   85.2508   13.5094 C.3     1  UNL1        0.0330
     10 C          63.4703   83.7974   13.1684 C.ar    1  UNL1        0.0119
     11 C          64.0590   82.7525   14.0694 C.ar    1  UNL1       -0.0013
     12 C          63.9123   81.2992   13.7284 C.ar    1  UNL1       -0.0001
     13 C          63.1770   80.8908   12.4863 C.ar    1  UNL1        0.0031
     14 C          62.5883   81.9356   11.5854 C.ar    1  UNL1        0.0366
     15 C          62.7350   83.3890   11.9265 C.ar    1  UNL1        0.1342
     16 O          62.1463   84.4339   11.0255 O.3     1  UNL1       -0.4828
     17 C          61.5576   85.4787   10.1246 C.3     1  UNL1        0.0616
     18 C          60.9690   86.5236    9.2236 C.3     1  UNL1        0.0985
     19 H          59.6954   87.6595    7.1979 H       1  UNL1        0.1509
     20 C          59.2030   89.6583    6.5208 C.3     1  UNL1        0.0774
     21 C          58.0202   90.4533    6.0528 C.3     1  UNL1        0.0259
     22 C          59.3661   90.6730    5.4282 C.3     1  UNL1        0.0420
     23 C          60.2374   91.3857    4.4368 C.ar    1  UNL1       -0.0208
     24 C          61.6703   90.9761    4.2669 C.ar    1  UNL1       -0.0042
     25 C          62.5416   91.6888    3.2755 C.ar    1  UNL1       -0.0003
     26 C          61.9799   92.8111    2.4539 C.ar    1  UNL1       -0.0000
     27 C          60.5469   93.2207    2.6238 C.ar    1  UNL1       -0.0003
     28 C          59.6757   92.5080    3.6153 C.ar    1  UNL1       -0.0042
@<TRIPOS>BOND
     1     1     2    2
     2     2     3   am
     3    20     3    1
     4    20    21    1
     5    21    22    1
     6    22    23    1
     7    23    24   ar
     8    24    25   ar
     9    25    26   ar
    10    26    27   ar
    11    27    28   ar
    12     2     4   am
    13     4     5    1
    14     5     6    1
    15     6     7    1
    16     7     8    1
    17     8     9    1
    18     9    10    1
    19    10    11   ar
    20    11    12   ar
    21    12    13   ar
    22    13    14   ar
    23    14    15   ar
    24    15    16    1
    25     7    17    1
    26    17    18    1
    27    22    20    1
    28    28    23   ar
    29    18     4    1
    30    16     7    1
    31    15    10   ar
    32     3    19    1
@<TRIPOS>MOLECULE
*****
 28 32 0 0 0
SMALL
GASTEIGER

@<TRIPOS>ATOM
      1 O          59.2070   87.5430    6.5478 O.2     1  UNL1       -0.2526
      2 C          59.9381   88.3828    7.5528 C.2     1  UNL1        0.3039
      3 N          59.9721   89.8747    7.4009 N.am    1  UNL1       -0.2901
      4 N          60.6353   87.7307    8.7099 N.am    1  UNL1       -0.2640
      5 C          60.6013   86.2388    8.8619 C.3     1  UNL1        0.0985
      6 C          61.2985   85.5868   10.0190 C.3     1  UNL1        0.0616
      7 C          62.0296   86.4266   11.0240 C.3     1  UNL1        0.1367
      8 C          61.9956   84.9347   11.1760 C.3     1  UNL1        0.0449
      9 C          62.6927   84.2826   12.3331 C.3     1  UNL1        0.0330
     10 C          63.4238   85.1225   13.3382 C.ar    1  UNL1        0.0119
     11 C          64.1210   84.4703   14.4953 C.ar    1  UNL1       -0.0013
     12 C          64.8521   85.3102   15.5004 C.ar    1  UNL1       -0.0001
     13 C          64.8860   86.8021   15.3483 C.ar    1  UNL1        0.0031
     14 C          64.1889   87.4541   14.1913 C.ar    1  UNL1        0.0366
     15 C          63.4578   86.6143   13.1862 C.ar    1  UNL1        0.1342
     16 O          62.7606   87.2664   12.0291 O.3     1  UNL1       -0.4828
     17 C          62.0635   87.9185   10.8721 C.3     1  UNL1        0.0616
     18 C          61.3664   88.5705    9.7150 C.3     1  UNL1        0.0985
     19 H          60.4520   90.4259    8.0605 H       1  UNL1        0.1509
     20 C          59.2750   90.5268    6.2438 C.3     1  UNL1        0.0774
     21 C          58.0078   90.8918    5.5289 C.3     1  UNL1        0.0259
     22 C          59.3346   91.2912    4.9545 C.3     1  UNL1        0.0420
     23 C          60.1351   91.9631    3.8786 C.ar    1  UNL1       -0.0208
     24 C          61.6137   91.7277    3.7861 C.ar    1  UNL1       -0.0042
     25 C          62.4142   92.3996    2.7101 C.ar    1  UNL1       -0.0003
     26 C          61.7362   93.3069    1.7266 C.ar    1  UNL1       -0.0000
     27 C          60.2577   93.5422    1.8191 C.ar    1  UNL1       -0.0003
     28 C          59.4571   92.8703    2.8952 C.ar    1  UNL1       -0.0042
@<TRIPOS>BOND
     1     1     2    2
     2     2     3   am
     3    20     3    1
     4    20    21    1
     5    21    22    1
     6    22    23    1
     7    23    24   ar
     8    24    25   ar
     9    25    26   ar
    10    26    27   ar
    11    27    28   ar
    12     2     4   am
    13     4     5    1
    14     5     6    1
    15     6     7    1
    16     7     8    1
    17     8     9    1
    18     9    10    1
    19    10    11   ar
    20    11    12   ar
    21    12    13   ar
    22    13    14   ar
    23    14    15   ar
    24    15    16    1
    25     7    17    1
    26    17    18    1
    27    22    20    1
    28    28    23   ar
    29    18     4    1
    30    16     7    1
    31    15    10   ar
    32     3    19    1
@<TRIPOS>MOLECULE
*****
 28 32 0 0 0
SMALL
GASTEIGER

@<TRIPOS>ATOM
      1 O          64.7088   90.9514   16.0431 O.2     1  UNL1       -0.2526
      2 C          64.7500   90.1780   14.7585 C.2     1  UNL1        0.3039
      3 N          65.2563   90.8304   13.5063 N.am    1  UNL1       -0.2901
      4 N          64.2848   88.7523   14.7261 N.am    1  UNL1       -0.2640
      5 C          63.7785   88.1000   15.9783 C.3     1  UNL1        0.0985
      6 C          63.3134   86.6743   15.9458 C.3     1  UNL1        0.0616
      7 C          63.3546   85.9010   14.6612 C.3     1  UNL1        0.1367
      8 C          62.8482   85.2486   15.9134 C.3     1  UNL1        0.0449
      9 C          62.3831   83.8229   15.8810 C.3     1  UNL1        0.0330
     10 C          62.4243   83.0496   14.5964 C.ar    1  UNL1        0.0119
     11 C          61.9591   81.6238   14.5640 C.ar    1  UNL1       -0.0013
     12 C          62.0003   80.8505   13.2794 C.ar    1  UNL1       -0.0001
     13 C          62.5067   81.5029   12.0271 C.ar    1  UNL1        0.0031
     14 C          62.9718   82.9286   12.0595 C.ar    1  UNL1        0.0366
     15 C          62.9306   83.7019   13.3442 C.ar    1  UNL1        0.1342
     16 O          63.3958   85.1277   13.3766 O.3     1  UNL1       -0.4828
     17 C          63.8609   86.5533   13.4090 C.3     1  UNL1        0.0616
     18 C          64.3260   87.9790   13.4414 C.3     1  UNL1        0.0985
     19 H          65.2834   90.3228   12.6631 H       1  UNL1        0.1509
     20 C          65.7215   92.2561   13.5386 C.3     1  UNL1        0.0774
     21 C          66.1008   93.4814   14.3163 C.3     1  UNL1        0.0259
     22 C          66.1479   93.5002   12.8171 C.3     1  UNL1        0.0420
     23 C          66.4212   94.2292   11.5351 C.ar    1  UNL1       -0.0208
     24 C          66.9826   93.4899   10.3569 C.ar    1  UNL1       -0.0042
     25 C          67.2559   94.2189    9.0748 C.ar    1  UNL1       -0.0003
     26 C          66.9678   95.6874    8.9709 C.ar    1  UNL1       -0.0000
     27 C          66.4064   96.4267   10.1491 C.ar    1  UNL1       -0.0003
     28 C          66.1331   95.6976   11.4312 C.ar    1  UNL1       -0.0042
@<TRIPOS>BOND
     1     1     2    2
     2     2     3   am
     3    20     3    1
     4    20    21    1
     5    21    22    1
     6    22    23    1
     7    23    24   ar
     8    24    25   ar
     9    25    26   ar
    10    26    27   ar
    11    27    28   ar
    12     2     4   am
    13     4     5    1
    14     5     6    1
    15     6     7    1
    16     7     8    1
    17     8     9    1
    18     9    10    1
    19    10    11   ar
    20    11    12   ar
    21    12    13   ar
    22    13    14   ar
    23    14    15   ar
    24    15    16    1
    25     7    17    1
    26    17    18    1
    27    22    20    1
    28    28    23   ar
    29    18     4    1
    30    16     7    1
    31    15    10   ar
    32     3    19    1
@<TRIPOS>MOLECULE
*****
 28 32 0 0 0
SMALL
GASTEIGER

@<TRIPOS>ATOM
      1 O          58.0137   90.4684    5.8674 O.2     1  UNL1       -0.2526
      2 C          59.4805   90.4666    5.5538 C.2     1  UNL1        0.3039
      3 N          60.4054   89.5497    6.2979 N.am    1  UNL1       -0.2901
      4 N          60.0225   91.3819    4.4962 N.am    1  UNL1       -0.2640
      5 C          59.0976   92.2989    3.7521 C.3     1  UNL1        0.0985
      6 C          59.6396   93.2141    2.6945 C.3     1  UNL1        0.0616
      7 C          61.1065   93.2124    2.3810 C.3     1  UNL1        0.1367
      8 C          60.1815   94.1294    1.6368 C.3     1  UNL1        0.0449
      9 C          60.7235   95.0447    0.5792 C.3     1  UNL1        0.0330
     10 C          62.1904   95.0429    0.2657 C.ar    1  UNL1        0.0119
     11 C          62.7324   95.9582   -0.7919 C.ar    1  UNL1       -0.0013
     12 C          64.1992   95.9565   -1.1055 C.ar    1  UNL1       -0.0001
     13 C          65.1241   95.0395   -0.3613 C.ar    1  UNL1        0.0031
     14 C          64.5822   94.1242    0.6963 C.ar    1  UNL1        0.0366
     15 C          63.1153   94.1260    1.0098 C.ar    1  UNL1        0.1342
     16 O          62.5733   93.2107    2.0675 O.3     1  UNL1       -0.4828
     17 C          62.0313   92.2954    3.1251 C.3     1  UNL1        0.0616
     18 C          61.4894   91.3802    4.1827 C.3     1  UNL1        0.0985
     19 H          61.3682   89.5485    6.0922 H       1  UNL1        0.1509
     20 C          59.8635   88.6344    7.3556 C.3     1  UNL1        0.0774
     21 C          58.7017   88.0968    8.1375 C.3     1  UNL1        0.0259
     22 C          60.0865   87.5866    8.4056 C.3     1  UNL1        0.0420
     23 C          61.0149   86.6872    9.1666 C.ar    1  UNL1       -0.0208
     24 C          60.9293   86.6136   10.6623 C.ar    1  UNL1       -0.0042
     25 C          61.8576   85.7142   11.4233 C.ar    1  UNL1       -0.0003
     26 C          62.8716   84.8882   10.6886 C.ar    1  UNL1       -0.0000
     27 C          62.9572   84.9618    9.1929 C.ar    1  UNL1       -0.0003
     28 C          62.0288   85.8613    8.4319 C.ar    1  UNL1       -0.0042
@<TRIPOS>BOND
     1     1     2    2
     2     2     3   am
     3    20     3    1
     4    20    21    1
     5    21    22    1
     6    22    23    1
     7    23    24   ar
     8    24    25   ar
     9    25    26   ar
    10    26    27   ar
    11    27    28   ar
    12     2     4   am
    13     4     5    1
    14     5     6    1
    15     6     7    1
    16     7     8    1
    17     8     9    1
    18     9    10    1
    19    10    11   ar
    20    11    12   ar
    21    12    13   ar
    22    13    14   ar
    23    14    15   ar
    24    15    16    1
    25     7    17    1
    26    17    18    1
    27    22    20    1
    28    28    23   ar
    29    18     4    1
    30    16     7    1
    31    15    10   ar
    32     3    19    1
@<TRIPOS>MOLECULE
*****
 28 32 0 0 0
SMALL
GASTEIGER

@<TRIPOS>ATOM
      1 O          58.0292   91.3457    4.7151 O.2     1  UNL1       -0.2526
      2 C          59.5228   91.3822    4.5813 C.2     1  UNL1        0.3039
      3 N          60.3769   90.5334    5.4757 N.am    1  UNL1       -0.2901
      4 N          60.1623   92.2676    3.5530 N.am    1  UNL1       -0.2640
      5 C          59.3082   93.1164    2.6586 C.3     1  UNL1        0.0985
      6 C          59.9477   94.0017    1.6304 C.3     1  UNL1        0.0616
      7 C          61.4413   94.0382    1.4966 C.3     1  UNL1        0.1367
      8 C          60.5872   94.8871    0.6022 C.3     1  UNL1        0.0449
      9 C          61.2266   95.7724   -0.4260 C.3     1  UNL1        0.0330
     10 C          62.7202   95.8089   -0.5598 C.ar    1  UNL1        0.0119
     11 C          63.3597   96.6943   -1.5881 C.ar    1  UNL1       -0.0013
     12 C          64.8533   96.7308   -1.7219 C.ar    1  UNL1       -0.0001
     13 C          65.7074   95.8819   -0.8274 C.ar    1  UNL1        0.0031
     14 C          65.0679   94.9966    0.2008 C.ar    1  UNL1        0.0366
     15 C          63.5743   94.9601    0.3346 C.ar    1  UNL1        0.1342
     16 O          62.9348   94.0747    1.3628 O.3     1  UNL1       -0.4828
     17 C          62.2953   93.1894    2.3910 C.3     1  UNL1        0.0616
     18 C          61.6559   92.3041    3.4192 C.3     1  UNL1        0.0985
     19 H          61.3572   90.5574    5.3878 H       1  UNL1        0.1509
     20 C          59.7374   89.6480    6.5039 C.3     1  UNL1        0.0774
     21 C          58.5337   88.9181    7.0219 C.3     1  UNL1        0.0259
     22 C          59.8335   88.8445    7.7669 C.3     1  UNL1        0.0420
     23 C          60.6394   88.3382    8.9262 C.ar    1  UNL1       -0.0208
     24 C          61.5156   89.2793    9.6986 C.ar    1  UNL1       -0.0042
     25 C          62.3215   88.7730   10.8579 C.ar    1  UNL1       -0.0003
     26 C          62.2513   87.3254   11.2449 C.ar    1  UNL1       -0.0000
     27 C          61.3751   86.3843   10.4726 C.ar    1  UNL1       -0.0003
     28 C          60.5692   86.8907    9.3132 C.ar    1  UNL1       -0.0042
@<TRIPOS>BOND
     1     1     2    2
     2     2     3   am
     3    20     3    1
     4    20    21    1
     5    21    22    1
     6    22    23    1
     7    23    24   ar
     8    24    25   ar
     9    25    26   ar
    10    26    27   ar
    11    27    28   ar
    12     2     4   am
    13     4     5    1
    14     5     6    1
    15     6     7    1
    16     7     8    1
    17     8     9    1
    18     9    10    1
    19    10    11   ar
    20    11    12   ar
    21    12    13   ar
    22    13    14   ar
    23    14    15   ar
    24    15    16    1
    25     7    17    1
    26    17    18    1
    27    22    20    1
    28    28    23   ar
    29    18     4    1
    30    16     7    1
    31    15    10   ar
    32     3    19    1
@<TRIPOS>MOLECULE
*****
 28 32 0 0 0
SMALL
GASTEIGER

@<TRIPOS>ATOM
      1 O          63.7666   90.8022   12.2119 O.2     1  UNL1       -0.2526
      2 C          64.2851   89.7967   13.1969 C.2     1  UNL1        0.3039
      3 N          65.1731   90.2382   14.3223 N.am    1  UNL1       -0.2901
      4 N          63.9156   88.3497   13.0564 N.am    1  UNL1       -0.2640
      5 C          63.0277   87.9082   11.9310 C.3     1  UNL1        0.0985
      6 C          62.6582   86.4612   11.7906 C.3     1  UNL1        0.0616
      7 C          63.1767   85.4558   12.7757 C.3     1  UNL1        0.1367
      8 C          62.2887   85.0142   11.6502 C.3     1  UNL1        0.0449
      9 C          61.9193   83.5672   11.5098 C.3     1  UNL1        0.0330
     10 C          62.4378   82.5618   12.4948 C.ar    1  UNL1        0.0119
     11 C          62.0683   81.1147   12.3544 C.ar    1  UNL1       -0.0013
     12 C          62.5868   80.1093   13.3394 C.ar    1  UNL1       -0.0001
     13 C          63.4748   80.5509   14.4649 C.ar    1  UNL1        0.0031
     14 C          63.8442   81.9978   14.6052 C.ar    1  UNL1        0.0366
     15 C          63.3257   83.0033   13.6202 C.ar    1  UNL1        0.1342
     16 O          63.6952   84.4503   13.7607 O.3     1  UNL1       -0.4828
     17 C          64.0647   85.8973   13.9011 C.3     1  UNL1        0.0616
     18 C          64.4341   87.3442   14.0414 C.3     1  UNL1        0.0985
     19 H          65.5134   89.5783   14.9688 H       1  UNL1        0.1509
     20 C          65.5426   91.6853   14.4627 C.3     1  UNL1        0.0774
     21 C          65.7849   92.8860   15.3284 C.3     1  UNL1        0.0259
     22 C          65.9402   92.9908   13.8402 C.3     1  UNL1        0.0420
     23 C          66.2594   93.8050   12.6216 C.ar    1  UNL1       -0.0208
     24 C          66.5779   93.1213   11.3250 C.ar    1  UNL1       -0.0042
     25 C          66.8971   93.9356   10.1064 C.ar    1  UNL1       -0.0003
     26 C          66.8978   95.4336   10.1843 C.ar    1  UNL1       -0.0000
     27 C          66.5793   96.1173   11.4809 C.ar    1  UNL1       -0.0003
     28 C          66.2601   95.3030   12.6995 C.ar    1  UNL1       -0.0042
@<TRIPOS>BOND
     1     1     2    2
     2     2     3   am
     3    20     3    1
     4    20    21    1
     5    21    22    1
     6    22    23    1
     7    23    24   ar
     8    24    25   ar
     9    25    26   ar
    10    26    27   ar
    11    27    28   ar
    12     2     4   am
    13     4     5    1
    14     5     6    1
    15     6     7    1
    16     7     8    1
    17     8     9    1
    18     9    10    1
    19    10    11   ar
    20    11    12   ar
    21    12    13   ar
    22    13    14   ar
    23    14    15   ar
    24    15    16    1
    25     7    17    1
    26    17    18    1
    27    22    20    1
    28    28    23   ar
    29    18     4    1
    30    16     7    1
    31    15    10   ar
    32     3    19    1
@<TRIPOS>MOLECULE
*****
 28 32 0 0 0
SMALL
GASTEIGER

@<TRIPOS>ATOM
      1 O          57.9619   90.4160    6.0880 O.2     1  UNL1       -0.2526
      2 C          59.4304   90.4528    5.7848 C.2     1  UNL1        0.3039
      3 N          60.3849   89.6293    6.5977 N.am    1  UNL1       -0.2901
      4 N          59.9445   91.3132    4.6688 N.am    1  UNL1       -0.2640
      5 C          58.9901   92.1367    3.8559 C.3     1  UNL1        0.0985
      6 C          59.5042   92.9970    2.7399 C.3     1  UNL1        0.0616
      7 C          60.9727   93.0338    2.4368 C.3     1  UNL1        0.1367
      8 C          60.0183   93.8574    1.6238 C.3     1  UNL1        0.0449
      9 C          60.5324   94.7177    0.5078 C.3     1  UNL1        0.0330
     10 C          62.0009   94.7545    0.2047 C.ar    1  UNL1        0.0119
     11 C          62.5150   95.6149   -0.9114 C.ar    1  UNL1       -0.0013
     12 C          63.9836   95.6517   -1.2145 C.ar    1  UNL1       -0.0001
     13 C          64.9381   94.8281   -0.4016 C.ar    1  UNL1        0.0031
     14 C          64.4240   93.9678    0.7144 C.ar    1  UNL1        0.0366
     15 C          62.9554   93.9310    1.0175 C.ar    1  UNL1        0.1342
     16 O          62.4413   93.0706    2.1336 O.3     1  UNL1       -0.4828
     17 C          61.9272   92.2103    3.2496 C.3     1  UNL1        0.0616
     18 C          61.4131   91.3500    4.3656 C.3     1  UNL1        0.0985
     19 H          61.3488   89.6535    6.3987 H       1  UNL1        0.1509
     20 C          59.8708   88.7689    7.7138 C.3     1  UNL1        0.0774
     21 C          58.7314   88.0772    8.4016 C.3     1  UNL1        0.0259
     22 C          60.1199   87.9705    8.9590 C.3     1  UNL1        0.0420
     23 C          61.0653   87.4479    9.9996 C.ar    1  UNL1       -0.0208
     24 C          61.2215   85.9691   10.1961 C.ar    1  UNL1       -0.0042
     25 C          62.1669   85.4465   11.2368 C.ar    1  UNL1       -0.0003
     26 C          62.9562   86.4028   12.0810 C.ar    1  UNL1       -0.0000
     27 C          62.8000   87.8817   11.8845 C.ar    1  UNL1       -0.0003
     28 C          61.8545   88.4042   10.8438 C.ar    1  UNL1       -0.0042
@<TRIPOS>BOND
     1     1     2    2
     2     2     3   am
     3    20     3    1
     4    20    21    1
     5    21    22    1
     6    22    23    1
     7    23    24   ar
     8    24    25   ar
     9    25    26   ar
    10    26    27   ar
    11    27    28   ar
    12     2     4   am
    13     4     5    1
    14     5     6    1
    15     6     7    1
    16     7     8    1
    17     8     9    1
    18     9    10    1
    19    10    11   ar
    20    11    12   ar
    21    12    13   ar
    22    13    14   ar
    23    14    15   ar
    24    15    16    1
    25     7    17    1
    26    17    18    1
    27    22    20    1
    28    28    23   ar
    29    18     4    1
    30    16     7    1
    31    15    10   ar
    32     3    19    1
