@<TRIPOS>MOLECULE
*****
 40 44 0 0 0
SMALL
GASTEIGER

@<TRIPOS>ATOM
      1 C          59.8143   87.7415    8.9683 C.ar    1  UNL1       -0.0025
      2 C          59.3825   87.2790    7.6084 C.ar    1  UNL1       -0.0014
      3 C          59.3667   88.2421    6.4585 C.ar    1  UNL1        0.0142
      4 C          59.7828   89.6679    6.6687 C.ar    1  UNL1        0.0479
      5 C          60.2147   90.1304    8.0286 C.ar    1  UNL1        0.0142
      6 C          60.2304   89.1672    9.1785 C.ar    1  UNL1       -0.0014
      7 N          59.7671   90.6310    5.5188 N.pl3   1  UNL1       -0.3041
      8 C          58.4720   91.2371    5.0659 C.3     1  UNL1        0.1122
      9 C          58.4562   92.2002    3.9161 C.3     1  UNL1        0.1122
     10 N          59.7357   92.5573    3.2192 N.pl3   1  UNL1       -0.3041
     11 C          61.0308   91.9512    3.6722 C.3     1  UNL1        0.1122
     12 C          61.0465   90.9880    4.8220 C.3     1  UNL1        0.1122
     13 C          59.7199   93.5204    2.0694 C.ar    1  UNL1        0.0481
     14 C          59.0906   93.1234    0.7670 C.ar    1  UNL1        0.0176
     15 C          59.0749   94.0865   -0.3829 C.ar    1  UNL1        0.0385
     16 C          59.6885   95.4468   -0.2303 C.ar    1  UNL1        0.1469
     17 C          60.3178   95.8438    1.0721 C.ar    1  UNL1        0.0385
     18 C          60.3336   94.8806    2.2219 C.ar    1  UNL1        0.0176
     19 O          59.6728   96.4099   -1.3801 O.3     1  UNL1       -0.4045
     20 C          59.7214   95.8969   -2.7888 C.3     1  UNL1        0.5753
     21 F          59.7700   95.3840   -4.1975 F       1  UNL1       -0.1328
     22 F          58.2547   96.1724   -2.9398 F       1  UNL1       -0.1328
     23 F          61.1881   95.6214   -2.6379 F       1  UNL1       -0.1328
     24 C          59.8300   86.7784   10.1182 C.3     1  UNL1        0.1166
     25 C          62.1202   86.6133   11.3338 C.2     1  UNL1        0.2635
     26 O          62.6961   85.8929   10.1507 O.2     1  UNL1       -0.2685
     27 N          60.6872   87.0560   11.3174 N.am    1  UNL1       -0.2957
     28 H          60.3092   87.5288   12.0938 H       1  UNL1        0.1501
     29 C          63.4833   85.8715   13.5102 C.ar    1  UNL1        0.0811
     30 N          64.2977   86.5873   14.5467 N.ar    1  UNL1       -0.2306
     31 C          64.2951   88.0491   14.2101 C.ar    1  UNL1        0.1483
     32 C          64.9304   89.2335   14.8761 C.ar    1  UNL1        0.0488
     33 C          64.7496   90.6055   14.2976 C.ar    1  UNL1        0.0622
     34 CL         65.3848   91.7900   14.9636 Cl      1  UNL1       -0.0821
     35 C          63.9335   90.7932   13.0531 C.ar    1  UNL1        0.0305
     36 C          63.2983   89.6088   12.3871 C.ar    1  UNL1        0.0824
     37 N          63.4791   88.2367   12.9656 N.ar    1  UNL1       -0.2853
     38 C          62.9774   86.8909   12.5330 C.ar    1  UNL1        0.1326
     39 C          64.1566   83.4926   12.7119 C.3     1  UNL1        0.0067
     40 C          63.2209   84.3955   13.4596 C.3     1  UNL1        0.0475
@<TRIPOS>BOND
     1    39    40    1
     2    40    29    1
     3    29    30   ar
     4    30    31   ar
     5    31    32   ar
     6    32    33   ar
     7    33    34    1
     8    33    35   ar
     9    35    36   ar
    10    36    37   ar
    11    37    38   ar
    12    38    25    1
    13    25    26    2
    14    25    27   am
    15    27    24    1
    16    24     1    1
    17     1     2   ar
    18     2     3   ar
    19     3     4   ar
    20     4     7    1
    21     7     8    1
    22     8     9    1
    23     9    10    1
    24    10    13    1
    25    13    14   ar
    26    14    15   ar
    27    15    16   ar
    28    16    19    1
    29    19    20    1
    30    20    21    1
    31    20    22    1
    32    20    23    1
    33    16    17   ar
    34    17    18   ar
    35    10    11    1
    36    11    12    1
    37     4     5   ar
    38     5     6   ar
    39    38    29   ar
    40     6     1   ar
    41    37    31   ar
    42    12     7    1
    43    18    13   ar
    44    27    28    1
@<TRIPOS>MOLECULE
*****
 40 44 0 0 0
SMALL
GASTEIGER

@<TRIPOS>ATOM
      1 C          59.4961   95.0525   -0.1570 C.ar    1  UNL1       -0.0025
      2 C          58.9302   93.6656   -0.2343 C.ar    1  UNL1       -0.0014
      3 C          58.9989   92.7599    0.9594 C.ar    1  UNL1        0.0142
      4 C          59.6335   93.2411    2.2305 C.ar    1  UNL1        0.0479
      5 C          60.1995   94.6281    2.3078 C.ar    1  UNL1        0.0142
      6 C          60.1308   95.5338    1.1141 C.ar    1  UNL1       -0.0014
      7 N          59.7022   92.3354    3.4242 N.pl3   1  UNL1       -0.3041
      8 C          58.4574   92.0214    4.2000 C.3     1  UNL1        0.1122
      9 C          58.5261   91.1157    5.3937 C.3     1  UNL1        0.1122
     10 N          59.8396   90.5240    5.8117 N.pl3   1  UNL1       -0.3041
     11 C          61.0844   90.8380    5.0359 C.3     1  UNL1        0.1122
     12 C          61.0157   91.7437    3.8422 C.3     1  UNL1        0.1122
     13 C          59.9082   89.6183    7.0054 C.ar    1  UNL1        0.0481
     14 C          59.3447   88.2305    6.9273 C.ar    1  UNL1        0.0176
     15 C          59.4133   87.3248    8.1210 C.ar    1  UNL1        0.0385
     16 C          60.0456   87.8069    9.3929 C.ar    1  UNL1        0.1469
     17 C          60.6092   89.1948    9.4710 C.ar    1  UNL1        0.0385
     18 C          60.5405   90.1005    8.2773 C.ar    1  UNL1        0.0176
     19 O          60.1143   86.9012   10.5866 O.3     1  UNL1       -0.4045
     20 C          61.4336   86.3394   11.0268 C.3     1  UNL1        0.5753
     21 F          62.7529   85.7775   11.4670 F       1  UNL1       -0.1328
     22 F          61.1963   85.1217   10.1837 F       1  UNL1       -0.1328
     23 F          61.6709   87.5571   11.8700 F       1  UNL1       -0.1328
     24 C          59.4275   95.9582   -1.3507 C.3     1  UNL1        0.1166
     25 C          59.6625   94.6974   -3.6102 C.2     1  UNL1        0.2635
     26 O          61.1054   94.4221   -3.3064 O.2     1  UNL1       -0.2685
     27 N          58.8236   95.4654   -2.6323 N.am    1  UNL1       -0.2957
     28 H          57.8765   95.6461   -2.8317 H       1  UNL1        0.1501
     29 C          59.4950   94.5849   -6.2755 C.ar    1  UNL1        0.0811
     30 N          58.6184   93.8603   -7.2535 N.ar    1  UNL1       -0.2306
     31 C          57.6401   93.0322   -6.4742 C.ar    1  UNL1        0.1483
     32 C          56.5368   92.1119   -6.9051 C.ar    1  UNL1        0.0488
     33 C          55.7056   91.4044   -5.8763 C.ar    1  UNL1        0.0622
     34 CL         54.6022   90.4840   -6.3072 Cl      1  UNL1       -0.0821
     35 C          55.9777   91.6172   -4.4166 C.ar    1  UNL1        0.0305
     36 C          57.0810   92.5375   -3.9857 C.ar    1  UNL1        0.0824
     37 N          57.9122   93.2450   -5.0145 N.ar    1  UNL1       -0.2853
     38 C          59.0586   94.2046   -4.8917 C.ar    1  UNL1        0.1326
     39 C          62.0165   95.0108   -6.7342 C.3     1  UNL1        0.0067
     40 C          60.6119   95.5247   -6.6207 C.3     1  UNL1        0.0475
@<TRIPOS>BOND
     1    39    40    1
     2    40    29    1
     3    29    30   ar
     4    30    31   ar
     5    31    32   ar
     6    32    33   ar
     7    33    34    1
     8    33    35   ar
     9    35    36   ar
    10    36    37   ar
    11    37    38   ar
    12    38    25    1
    13    25    26    2
    14    25    27   am
    15    27    24    1
    16    24     1    1
    17     1     2   ar
    18     2     3   ar
    19     3     4   ar
    20     4     7    1
    21     7     8    1
    22     8     9    1
    23     9    10    1
    24    10    13    1
    25    13    14   ar
    26    14    15   ar
    27    15    16   ar
    28    16    19    1
    29    19    20    1
    30    20    21    1
    31    20    22    1
    32    20    23    1
    33    16    17   ar
    34    17    18   ar
    35    10    11    1
    36    11    12    1
    37     4     5   ar
    38     5     6   ar
    39    38    29   ar
    40     6     1   ar
    41    37    31   ar
    42    12     7    1
    43    18    13   ar
    44    27    28    1
@<TRIPOS>MOLECULE
*****
 40 44 0 0 0
SMALL
GASTEIGER

@<TRIPOS>ATOM
      1 C          59.8393   88.1681    9.0807 C.ar    1  UNL1       -0.0025
      2 C          59.1392   87.7227    7.8312 C.ar    1  UNL1       -0.0014
      3 C          59.1185   88.6137    6.6247 C.ar    1  UNL1        0.0142
      4 C          59.7979   89.9503    6.6677 C.ar    1  UNL1        0.0479
      5 C          60.4981   90.3958    7.9172 C.ar    1  UNL1        0.0142
      6 C          60.5188   89.5047    9.1237 C.ar    1  UNL1       -0.0014
      7 N          59.7772   90.8413    5.4612 N.pl3   1  UNL1       -0.3041
      8 C          61.0580   91.1828    4.7590 C.3     1  UNL1        0.1122
      9 C          61.0373   92.0739    3.5525 C.3     1  UNL1        0.1122
     10 N          59.7358   92.6234    3.0483 N.pl3   1  UNL1       -0.3041
     11 C          58.4551   92.2819    3.7505 C.3     1  UNL1        0.1122
     12 C          58.4758   91.3909    4.9569 C.3     1  UNL1        0.1122
     13 C          59.7151   93.5144    1.8418 C.ar    1  UNL1        0.0481
     14 C          59.0426   93.0557    0.5820 C.ar    1  UNL1        0.0176
     15 C          59.0219   93.9467   -0.6245 C.ar    1  UNL1        0.0385
     16 C          59.6738   95.2966   -0.5712 C.ar    1  UNL1        0.1469
     17 C          60.3463   95.7554    0.6886 C.ar    1  UNL1        0.0385
     18 C          60.3670   94.8643    1.8951 C.ar    1  UNL1        0.0176
     19 O          59.6531   96.1876   -1.7777 O.3     1  UNL1       -0.4045
     20 C          58.7420   95.8728   -2.9270 C.3     1  UNL1        0.5753
     21 F          57.8309   95.5580   -4.0762 F       1  UNL1       -0.1328
     22 F          57.6115   96.5586   -2.2186 F       1  UNL1       -0.1328
     23 F          59.8725   95.1871   -3.6353 F       1  UNL1       -0.1328
     24 C          59.8600   87.2771   10.2872 C.3     1  UNL1        0.1166
     25 C          62.0065   85.9434   10.8902 C.2     1  UNL1        0.2635
     26 O          62.5823   87.1652   11.5427 O.2     1  UNL1       -0.2685
     27 N          60.6454   85.9994   10.2625 N.am    1  UNL1       -0.2957
     28 H          60.2675   85.1975    9.8343 H       1  UNL1        0.1501
     29 C          63.5784   84.1365    9.7031 C.ar    1  UNL1        0.0811
     30 N          64.2012   82.8365   10.1182 N.ar    1  UNL1       -0.2306
     31 C          63.7995   82.5623   11.5372 C.ar    1  UNL1        0.1483
     32 C          64.1144   81.4293   12.4683 C.ar    1  UNL1        0.0488
     33 C          63.5582   81.4267   13.8614 C.ar    1  UNL1        0.0622
     34 CL         63.8731   80.2936   14.7926 Cl      1  UNL1       -0.0821
     35 C          62.6872   82.5571   14.3233 C.ar    1  UNL1        0.0305
     36 C          62.3723   83.6902   13.3921 C.ar    1  UNL1        0.0824
     37 N          62.9285   83.6927   11.9991 N.ar    1  UNL1       -0.2853
     38 C          62.7919   84.6656   10.8656 C.ar    1  UNL1        0.1326
     39 C          62.5333   84.8860    7.4458 C.3     1  UNL1        0.0067
     40 C          63.7177   84.7921    8.3612 C.3     1  UNL1        0.0475
@<TRIPOS>BOND
     1    39    40    1
     2    40    29    1
     3    29    30   ar
     4    30    31   ar
     5    31    32   ar
     6    32    33   ar
     7    33    34    1
     8    33    35   ar
     9    35    36   ar
    10    36    37   ar
    11    37    38   ar
    12    38    25    1
    13    25    26    2
    14    25    27   am
    15    27    24    1
    16    24     1    1
    17     1     2   ar
    18     2     3   ar
    19     3     4   ar
    20     4     7    1
    21     7     8    1
    22     8     9    1
    23     9    10    1
    24    10    13    1
    25    13    14   ar
    26    14    15   ar
    27    15    16   ar
    28    16    19    1
    29    19    20    1
    30    20    21    1
    31    20    22    1
    32    20    23    1
    33    16    17   ar
    34    17    18   ar
    35    10    11    1
    36    11    12    1
    37     4     5   ar
    38     5     6   ar
    39    38    29   ar
    40     6     1   ar
    41    37    31   ar
    42    12     7    1
    43    18    13   ar
    44    27    28    1
@<TRIPOS>MOLECULE
*****
 40 44 0 0 0
SMALL
GASTEIGER

@<TRIPOS>ATOM
      1 C          59.5567   95.0472   -0.2295 C.ar    1  UNL1       -0.0025
      2 C          58.9737   93.6671   -0.3036 C.ar    1  UNL1       -0.0014
      3 C          59.0303   92.7638    0.8926 C.ar    1  UNL1        0.0142
      4 C          59.6699   93.2406    2.1629 C.ar    1  UNL1        0.0479
      5 C          60.2529   94.6206    2.2369 C.ar    1  UNL1        0.0142
      6 C          60.1963   95.5239    1.0408 C.ar    1  UNL1       -0.0014
      7 N          59.7264   92.3373    3.3591 N.pl3   1  UNL1       -0.3041
      8 C          58.4702   92.0060    4.1088 C.3     1  UNL1        0.1122
      9 C          58.5267   91.1027    5.3049 C.3     1  UNL1        0.1122
     10 N          59.8395   90.5307    5.7514 N.pl3   1  UNL1       -0.3041
     11 C          61.0958   90.8620    5.0017 C.3     1  UNL1        0.1122
     12 C          61.0392   91.7653    3.8056 C.3     1  UNL1        0.1122
     13 C          59.8961   89.6274    6.9476 C.ar    1  UNL1        0.0481
     14 C          59.3676   88.2267    6.8554 C.ar    1  UNL1        0.0176
     15 C          59.4241   87.3234    8.0515 C.ar    1  UNL1        0.0385
     16 C          60.0093   87.8208    9.3400 C.ar    1  UNL1        0.1469
     17 C          60.5378   89.2215    9.4323 C.ar    1  UNL1        0.0385
     18 C          60.4812   90.1248    8.2361 C.ar    1  UNL1        0.0176
     19 O          60.0658   86.9175   10.5362 O.3     1  UNL1       -0.4045
     20 C          61.3921   86.5074   11.1043 C.3     1  UNL1        0.5753
     21 F          62.7184   86.0974   11.6724 F       1  UNL1       -0.1328
     22 F          61.5070   87.8345   11.7940 F       1  UNL1       -0.1328
     23 F          61.2772   85.1804   10.4146 F       1  UNL1       -0.1328
     24 C          59.5002   95.9505   -1.4257 C.3     1  UNL1        0.1166
     25 C          57.8879   95.2402   -3.3352 C.2     1  UNL1        0.2635
     26 O          58.8552   94.1733   -3.7549 O.2     1  UNL1       -0.2685
     27 N          58.2105   96.1287   -2.1706 N.am    1  UNL1       -0.2957
     28 H          57.5756   96.8290   -1.8951 H       1  UNL1        0.1501
     29 C          56.4254   95.3648   -5.5691 C.ar    1  UNL1        0.0811
     30 N          54.9753   95.5949   -5.8760 N.ar    1  UNL1       -0.2306
     31 C          54.2519   95.7907   -4.5767 C.ar    1  UNL1        0.1483
     32 C          52.8094   96.0542   -4.2608 C.ar    1  UNL1        0.0488
     33 C          52.3700   96.2087   -2.8350 C.ar    1  UNL1        0.0622
     34 CL         50.9275   96.4722   -2.5190 Cl      1  UNL1       -0.0821
     35 C          53.3731   96.0996   -1.7250 C.ar    1  UNL1        0.0305
     36 C          54.8155   95.8361   -2.0409 C.ar    1  UNL1        0.0824
     37 N          55.2549   95.6817   -3.4667 N.ar    1  UNL1       -0.2853
     38 C          56.5982   95.4185   -4.0801 C.ar    1  UNL1        0.1326
     39 C          57.7653   93.7367   -7.0869 C.3     1  UNL1        0.0067
     40 C          57.5120   95.1235   -6.5747 C.3     1  UNL1        0.0475
@<TRIPOS>BOND
     1    39    40    1
     2    40    29    1
     3    29    30   ar
     4    30    31   ar
     5    31    32   ar
     6    32    33   ar
     7    33    34    1
     8    33    35   ar
     9    35    36   ar
    10    36    37   ar
    11    37    38   ar
    12    38    25    1
    13    25    26    2
    14    25    27   am
    15    27    24    1
    16    24     1    1
    17     1     2   ar
    18     2     3   ar
    19     3     4   ar
    20     4     7    1
    21     7     8    1
    22     8     9    1
    23     9    10    1
    24    10    13    1
    25    13    14   ar
    26    14    15   ar
    27    15    16   ar
    28    16    19    1
    29    19    20    1
    30    20    21    1
    31    20    22    1
    32    20    23    1
    33    16    17   ar
    34    17    18   ar
    35    10    11    1
    36    11    12    1
    37     4     5   ar
    38     5     6   ar
    39    38    29   ar
    40     6     1   ar
    41    37    31   ar
    42    12     7    1
    43    18    13   ar
    44    27    28    1
@<TRIPOS>MOLECULE
*****
 40 44 0 0 0
SMALL
GASTEIGER

@<TRIPOS>ATOM
      1 C          59.4956   88.2113    8.5137 C.ar    1  UNL1       -0.0025
      2 C          60.1177   89.5556    8.7500 C.ar    1  UNL1       -0.0014
      3 C          60.3387   90.4925    7.5996 C.ar    1  UNL1        0.0142
      4 C          59.9375   90.0851    6.2128 C.ar    1  UNL1        0.0479
      5 C          59.3154   88.7409    5.9765 C.ar    1  UNL1        0.0142
      6 C          59.0945   87.8040    7.1269 C.ar    1  UNL1       -0.0014
      7 N          60.1584   91.0220    5.0624 N.pl3   1  UNL1       -0.3041
      8 C          59.0261   91.8629    4.5519 C.3     1  UNL1        0.1122
      9 C          59.2470   92.7998    3.4015 C.3     1  UNL1        0.1122
     10 N          60.6003   92.8958    2.7616 N.pl3   1  UNL1       -0.3041
     11 C          61.7326   92.0549    3.2721 C.3     1  UNL1        0.1122
     12 C          61.5117   91.1180    4.4225 C.3     1  UNL1        0.1122
     13 C          60.8212   93.8327    1.6112 C.ar    1  UNL1        0.0481
     14 C          60.3252   95.2461    1.6891 C.ar    1  UNL1        0.0176
     15 C          60.5461   96.1830    0.5387 C.ar    1  UNL1        0.0385
     16 C          61.2632   95.7065   -0.6896 C.ar    1  UNL1        0.1469
     17 C          61.7592   94.2931   -0.7675 C.ar    1  UNL1        0.0385
     18 C          61.5383   93.3562    0.3829 C.ar    1  UNL1        0.0176
     19 O          61.4841   96.6434   -1.8400 O.3     1  UNL1       -0.4045
     20 C          61.5773   96.1062   -3.2374 C.3     1  UNL1        0.5753
     21 F          61.6705   95.5691   -4.6349 F       1  UNL1       -0.1328
     22 F          63.0534   96.3730   -3.2415 F       1  UNL1       -0.1328
     23 F          60.1012   95.8395   -3.2334 F       1  UNL1       -0.1328
     24 C          59.2747   87.2745    9.6641 C.3     1  UNL1        0.1166
     25 C          61.6552   87.0849   10.6874 C.2     1  UNL1        0.2635
     26 O          62.2173   86.7983    9.3264 O.2     1  UNL1       -0.2685
     27 N          60.1840   87.3229   10.8561 N.am    1  UNL1       -0.2957
     28 H          59.8150   87.5110   11.7493 H       1  UNL1        0.1501
     29 C          63.1579   88.3702   12.4859 C.ar    1  UNL1        0.0811
     30 N          64.0001   87.9547   13.6556 N.ar    1  UNL1       -0.2306
     31 C          63.9272   86.4610   13.7719 C.ar    1  UNL1        0.1483
     32 C          64.5541   85.4975   14.7355 C.ar    1  UNL1        0.0488
     33 C          64.2937   84.0264   14.6014 C.ar    1  UNL1        0.0622
     34 CL         64.9207   83.0628   15.5651 Cl      1  UNL1       -0.0821
     35 C          63.4065   83.5188   13.5037 C.ar    1  UNL1        0.0305
     36 C          62.7796   84.4822   12.5400 C.ar    1  UNL1        0.0824
     37 N          63.0399   85.9533   12.6741 N.ar    1  UNL1       -0.2853
     38 C          62.5645   87.1333   11.8794 C.ar    1  UNL1        0.1326
     39 C          63.1949   90.1238   10.5693 C.3     1  UNL1        0.0067
     40 C          62.9462   89.7759   12.0070 C.3     1  UNL1        0.0475
@<TRIPOS>BOND
     1    39    40    1
     2    40    29    1
     3    29    30   ar
     4    30    31   ar
     5    31    32   ar
     6    32    33   ar
     7    33    34    1
     8    33    35   ar
     9    35    36   ar
    10    36    37   ar
    11    37    38   ar
    12    38    25    1
    13    25    26    2
    14    25    27   am
    15    27    24    1
    16    24     1    1
    17     1     2   ar
    18     2     3   ar
    19     3     4   ar
    20     4     7    1
    21     7     8    1
    22     8     9    1
    23     9    10    1
    24    10    13    1
    25    13    14   ar
    26    14    15   ar
    27    15    16   ar
    28    16    19    1
    29    19    20    1
    30    20    21    1
    31    20    22    1
    32    20    23    1
    33    16    17   ar
    34    17    18   ar
    35    10    11    1
    36    11    12    1
    37     4     5   ar
    38     5     6   ar
    39    38    29   ar
    40     6     1   ar
    41    37    31   ar
    42    12     7    1
    43    18    13   ar
    44    27    28    1
