@<TRIPOS>MOLECULE
*****
 27 30 0 0 0
SMALL
GASTEIGER

@<TRIPOS>ATOM
      1 C          62.8451   89.7491   11.4325 C.ar    1  UNL1        0.0139
      2 C          62.2250   90.4751   10.2756 C.ar    1  UNL1        0.0061
      3 C          61.2720   89.7594    9.3649 C.ar    1  UNL1        0.0608
      4 C          60.9389   88.3177    9.6110 C.ar    1  UNL1        0.2612
      5 O          59.9859   87.6020    8.7003 O.2     1  UNL1       -0.2670
      6 N          61.5590   87.5916   10.7679 N.ar    1  UNL1       -0.2899
      7 C          62.5121   88.3074   11.6786 C.ar    1  UNL1        0.0783
      8 N          67.2446   92.6446   16.2171 N.pl3   1  UNL1       -0.2443
      9 C          66.6817   92.8140   14.8371 C.2     1  UNL1        0.3462
     10 N          66.9976   93.9311   13.8871 N.2     1  UNL1        0.0797
     11 N          66.2153   93.7035   12.6276 N.2     1  UNL1       -0.0381
     12 C          65.4160   92.4458   12.7992 C.2     1  UNL1        0.1169
     13 C          64.4630   91.7302   11.8885 C.3     1  UNL1        0.0763
     14 C          63.7982   90.4648   12.3433 C.2     1  UNL1       -0.0146
     15 C          64.0865   89.9151   13.7088 C.2     1  UNL1       -0.0035
     16 C          65.0396   90.6307   14.6195 C.2     1  UNL1        0.0085
     17 C          65.7043   91.8961   14.1647 C.2     1  UNL1        0.1018
     18 H          67.8836   93.3039   16.5725 H       1  UNL1        0.2885
     19 H          66.9749   91.8742   16.7675 H       1  UNL1        0.2885
     20 C          61.2261   86.1500   11.0140 C.3     1  UNL1        0.1380
     21 C          62.3161   85.1196   11.0241 C.ar    1  UNL1        0.0280
     22 C          62.7613   84.5113   12.3209 C.ar    1  UNL1       -0.0002
     23 C          63.8513   83.4810   12.3310 C.ar    1  UNL1       -0.0001
     24 C          64.4962   83.0588   11.0442 C.ar    1  UNL1        0.0023
     25 C          64.0511   83.6671    9.7474 C.ar    1  UNL1        0.0294
     26 C          62.9611   84.6975    9.7373 C.ar    1  UNL1        0.1380
     27 F          62.5159   85.3057    8.4404 F       1  UNL1       -0.2044
@<TRIPOS>BOND
     1     8     9    1
     2     9    10    2
     3    10    11    1
     4    11    12    2
     5    12    13    1
     6    13    14    1
     7    14     1    1
     8     1     2   ar
     9     2     3   ar
    10     3     4   ar
    11     4     5    2
    12     4     6   ar
    13     6    20    1
    14    20    21    1
    15    21    22   ar
    16    22    23   ar
    17    23    24   ar
    18    24    25   ar
    19    25    26   ar
    20    26    27    1
    21     6     7   ar
    22    14    15    2
    23    15    16    1
    24    16    17    2
    25    17     9    1
    26    17    12    1
    27     7     1   ar
    28    26    21   ar
    29     8    18    1
    30     8    19    1
@<TRIPOS>MOLECULE
*****
 27 30 0 0 0
SMALL
GASTEIGER

@<TRIPOS>ATOM
      1 C          63.4756   90.0533   12.2119 C.ar    1  UNL1        0.0139
      2 C          63.7350   89.3087   13.4879 C.ar    1  UNL1        0.0061
      3 C          64.6931   89.8647   14.4992 C.ar    1  UNL1        0.0608
      4 C          65.3919   91.1655   14.2345 C.ar    1  UNL1        0.2612
      5 O          66.3500   91.7215   15.2458 O.2     1  UNL1       -0.2670
      6 N          65.1325   91.9101   12.9585 N.ar    1  UNL1       -0.2899
      7 C          64.1743   91.3540   11.9471 C.ar    1  UNL1        0.0783
      8 N          58.7180   88.0662    7.3079 N.pl3   1  UNL1       -0.2443
      9 C          59.7692   87.5536    8.2471 C.2     1  UNL1        0.3462
     10 N          60.1732   86.1195    8.4203 N.2     1  UNL1        0.0797
     11 N          61.2547   86.0647    9.4583 N.2     1  UNL1       -0.0381
     12 C          61.5191   87.4650    9.9265 C.2     1  UNL1        0.1169
     13 C          62.4773   88.0210   10.9378 C.3     1  UNL1        0.0763
     14 C          62.5174   89.4972   11.2006 C.2     1  UNL1       -0.0146
     15 C          61.5993   90.4175   10.4520 C.2     1  UNL1       -0.0035
     16 C          60.6411   89.8614    9.4407 C.2     1  UNL1        0.0085
     17 C          60.6010   88.3852    9.1780 C.2     1  UNL1        0.1018
     18 H          58.2227   87.4386    6.7335 H       1  UNL1        0.2885
     19 H          58.5233   89.0304    7.2659 H       1  UNL1        0.2885
     20 C          65.8311   93.2107   12.6937 C.3     1  UNL1        0.1380
     21 C          66.6012   93.4029   11.4209 C.ar    1  UNL1        0.0280
     22 C          67.4071   92.2721   10.8538 C.ar    1  UNL1       -0.0002
     23 C          68.1771   92.4643    9.5810 C.ar    1  UNL1       -0.0001
     24 C          68.1412   93.7874    8.8752 C.ar    1  UNL1        0.0023
     25 C          67.3353   94.9183    9.4423 C.ar    1  UNL1        0.0294
     26 C          66.5653   94.7260   10.7152 C.ar    1  UNL1        0.1380
     27 F          65.7593   95.8570   11.2823 F       1  UNL1       -0.2044
@<TRIPOS>BOND
     1     8     9    1
     2     9    10    2
     3    10    11    1
     4    11    12    2
     5    12    13    1
     6    13    14    1
     7    14     1    1
     8     1     2   ar
     9     2     3   ar
    10     3     4   ar
    11     4     5    2
    12     4     6   ar
    13     6    20    1
    14    20    21    1
    15    21    22   ar
    16    22    23   ar
    17    23    24   ar
    18    24    25   ar
    19    25    26   ar
    20    26    27    1
    21     6     7   ar
    22    14    15    2
    23    15    16    1
    24    16    17    2
    25    17     9    1
    26    17    12    1
    27     7     1   ar
    28    26    21   ar
    29     8    18    1
    30     8    19    1
@<TRIPOS>MOLECULE
*****
 27 30 0 0 0
SMALL
GASTEIGER

@<TRIPOS>ATOM
      1 C          63.9899   89.0290   14.9510 C.ar    1  UNL1        0.0139
      2 C          63.2847   89.3612   16.2325 C.ar    1  UNL1        0.0061
      3 C          62.8726   88.2637   17.1682 C.ar    1  UNL1        0.0608
      4 C          63.1658   86.8338   16.8224 C.ar    1  UNL1        0.2612
      5 O          62.7538   85.7362   17.7581 O.2     1  UNL1       -0.2670
      6 N          63.8710   86.5015   15.5409 N.ar    1  UNL1       -0.2899
      7 C          64.2830   87.5992   14.6051 C.ar    1  UNL1        0.0783
      8 N          65.4371   94.0216   10.0919 N.pl3   1  UNL1       -0.2443
      9 C          65.8533   93.4808   11.4276 C.2     1  UNL1        0.3462
     10 N          66.9700   94.0039   12.2816 N.2     1  UNL1        0.0797
     11 N          67.0327   93.1683   13.5257 N.2     1  UNL1       -0.0381
     12 C          65.9547   92.1286   13.4406 C.2     1  UNL1        0.1169
     13 C          65.5428   91.0310   14.3763 C.3     1  UNL1        0.0763
     14 C          64.4019   90.1266   14.0153 C.2     1  UNL1       -0.0146
     15 C          63.6730   90.3198   12.7186 C.2     1  UNL1       -0.0035
     16 C          64.0850   91.4173   11.7829 C.2     1  UNL1        0.0085
     17 C          65.2259   92.3218   12.1439 C.2     1  UNL1        0.1018
     18 H          65.9132   94.7900    9.7019 H       1  UNL1        0.2885
     19 H          64.6879   93.6082    9.6051 H       1  UNL1        0.2885
     20 C          64.1641   85.0717   15.1950 C.3     1  UNL1        0.1380
     21 C          63.6758   84.4986   13.8977 C.ar    1  UNL1        0.0280
     22 C          63.1675   85.4091   12.8196 C.ar    1  UNL1       -0.0002
     23 C          62.6792   84.8360   11.5223 C.ar    1  UNL1       -0.0001
     24 C          62.6992   83.3522   11.3031 C.ar    1  UNL1        0.0023
     25 C          63.2075   82.4417   12.3812 C.ar    1  UNL1        0.0294
     26 C          63.6958   83.0148   13.6785 C.ar    1  UNL1        0.1380
     27 F          64.2041   82.1042   14.7567 F       1  UNL1       -0.2044
@<TRIPOS>BOND
     1     8     9    1
     2     9    10    2
     3    10    11    1
     4    11    12    2
     5    12    13    1
     6    13    14    1
     7    14     1    1
     8     1     2   ar
     9     2     3   ar
    10     3     4   ar
    11     4     5    2
    12     4     6   ar
    13     6    20    1
    14    20    21    1
    15    21    22   ar
    16    22    23   ar
    17    23    24   ar
    18    24    25   ar
    19    25    26   ar
    20    26    27    1
    21     6     7   ar
    22    14    15    2
    23    15    16    1
    24    16    17    2
    25    17     9    1
    26    17    12    1
    27     7     1   ar
    28    26    21   ar
    29     8    18    1
    30     8    19    1
@<TRIPOS>MOLECULE
*****
 27 30 0 0 0
SMALL
GASTEIGER

@<TRIPOS>ATOM
      1 C          62.9627   89.7353   11.7676 C.ar    1  UNL1        0.0139
      2 C          62.5711   90.4273   10.4956 C.ar    1  UNL1        0.0061
      3 C          61.7922   89.6877    9.4486 C.ar    1  UNL1        0.0608
      4 C          61.4047   88.2561    9.6735 C.ar    1  UNL1        0.2612
      5 O          60.6258   87.5166    8.6265 O.2     1  UNL1       -0.2670
      6 N          61.7963   87.5642   10.9455 N.ar    1  UNL1       -0.2899
      7 C          62.5753   88.3038   11.9925 C.ar    1  UNL1        0.0783
      8 N          67.1152   93.3975   16.2371 N.pl3   1  UNL1       -0.2443
      9 C          65.8476   92.6007   16.1461 C.2     1  UNL1        0.3462
     10 N          64.9054   92.3107   17.2767 N.2     1  UNL1        0.0797
     11 N          63.7752   91.4848   16.7378 N.2     1  UNL1       -0.0381
     12 C          64.0188   91.2644   15.2742 C.2     1  UNL1        0.1169
     13 C          63.2398   90.5248   14.2273 C.3     1  UNL1        0.0763
     14 C          63.7417   90.4749   12.8146 C.2     1  UNL1       -0.0146
     15 C          65.0225   91.1646   12.4489 C.2     1  UNL1       -0.0035
     16 C          65.8015   91.9042   13.4959 C.2     1  UNL1        0.0085
     17 C          65.2996   91.9541   14.9085 C.2     1  UNL1        0.1018
     18 H          67.3927   93.7843   17.0989 H       1  UNL1        0.2885
     19 H          67.6696   93.5337   15.4351 H       1  UNL1        0.2885
     20 C          61.4089   86.1326   11.1704 C.3     1  UNL1        0.1380
     21 C          62.4506   85.0551   11.1084 C.ar    1  UNL1        0.0280
     22 C          63.0088   84.6269    9.7837 C.ar    1  UNL1       -0.0002
     23 C          64.0505   83.5494    9.7217 C.ar    1  UNL1       -0.0001
     24 C          64.5340   82.9001   10.9844 C.ar    1  UNL1        0.0023
     25 C          63.9758   83.3283   12.3092 C.ar    1  UNL1        0.0294
     26 C          62.9341   84.4058   12.3712 C.ar    1  UNL1        0.1380
     27 F          62.3759   84.8341   13.6960 F       1  UNL1       -0.2044
@<TRIPOS>BOND
     1     8     9    1
     2     9    10    2
     3    10    11    1
     4    11    12    2
     5    12    13    1
     6    13    14    1
     7    14     1    1
     8     1     2   ar
     9     2     3   ar
    10     3     4   ar
    11     4     5    2
    12     4     6   ar
    13     6    20    1
    14    20    21    1
    15    21    22   ar
    16    22    23   ar
    17    23    24   ar
    18    24    25   ar
    19    25    26   ar
    20    26    27    1
    21     6     7   ar
    22    14    15    2
    23    15    16    1
    24    16    17    2
    25    17     9    1
    26    17    12    1
    27     7     1   ar
    28    26    21   ar
    29     8    18    1
    30     8    19    1
@<TRIPOS>MOLECULE
*****
 27 30 0 0 0
SMALL
GASTEIGER

@<TRIPOS>ATOM
      1 C          63.0631   90.1827   11.1013 C.ar    1  UNL1        0.0139
      2 C          63.6454   91.4211   10.4870 C.ar    1  UNL1        0.0061
      3 C          64.5472   92.3064   11.2950 C.ar    1  UNL1        0.0608
      4 C          64.8668   91.9533   12.7175 C.ar    1  UNL1        0.2612
      5 O          65.7686   92.8386   13.5255 O.2     1  UNL1       -0.2670
      6 N          64.2845   90.7150   13.3318 N.ar    1  UNL1       -0.2899
      7 C          63.3826   89.8297   12.5237 C.ar    1  UNL1        0.0783
      8 N          58.3017   86.4755    7.3307 N.pl3   1  UNL1       -0.2443
      9 C          59.7025   86.4482    7.8664 C.2     1  UNL1        0.3462
     10 N          60.6941   85.3373    7.6857 N.2     1  UNL1        0.0797
     11 N          61.9621   85.7296    8.3845 N.2     1  UNL1       -0.0381
     12 C          61.7541   87.0829    8.9972 C.2     1  UNL1        0.1169
     13 C          62.6560   87.9681    9.8053 C.3     1  UNL1        0.0763
     14 C          62.1613   89.2974   10.2932 C.2     1  UNL1       -0.0146
     15 C          60.7648   89.7416    9.9729 C.2     1  UNL1       -0.0035
     16 C          59.8630   88.8564    9.1649 C.2     1  UNL1        0.0085
     17 C          60.3576   87.5270    8.6770 C.2     1  UNL1        0.1018
     18 H          57.9602   85.7153    6.8066 H       1  UNL1        0.2885
     19 H          57.7239   87.2537    7.5031 H       1  UNL1        0.2885
     20 C          64.6039   90.3619   14.7542 C.3     1  UNL1        0.1380
     21 C          64.1726   89.0386   15.3136 C.ar    1  UNL1        0.0280
     22 C          64.5798   87.7669   14.6304 C.ar    1  UNL1       -0.0002
     23 C          64.1485   86.4436   15.1898 C.ar    1  UNL1       -0.0001
     24 C          63.3098   86.3921   16.4323 C.ar    1  UNL1        0.0023
     25 C          62.9025   87.6638   17.1154 C.ar    1  UNL1        0.0294
     26 C          63.3339   88.9871   16.5561 C.ar    1  UNL1        0.1380
     27 F          62.9265   90.2589   17.2393 F       1  UNL1       -0.2044
@<TRIPOS>BOND
     1     8     9    1
     2     9    10    2
     3    10    11    1
     4    11    12    2
     5    12    13    1
     6    13    14    1
     7    14     1    1
     8     1     2   ar
     9     2     3   ar
    10     3     4   ar
    11     4     5    2
    12     4     6   ar
    13     6    20    1
    14    20    21    1
    15    21    22   ar
    16    22    23   ar
    17    23    24   ar
    18    24    25   ar
    19    25    26   ar
    20    26    27    1
    21     6     7   ar
    22    14    15    2
    23    15    16    1
    24    16    17    2
    25    17     9    1
    26    17    12    1
    27     7     1   ar
    28    26    21   ar
    29     8    18    1
    30     8    19    1
@<TRIPOS>MOLECULE
*****
 27 30 0 0 0
SMALL
GASTEIGER

@<TRIPOS>ATOM
      1 C          63.7625   90.3815   13.2440 C.ar    1  UNL1        0.0139
      2 C          63.5209   90.1677   14.7089 C.ar    1  UNL1        0.0061
      3 C          64.3004   90.9547   15.7203 C.ar    1  UNL1        0.0608
      4 C          65.3215   91.9557   15.2668 C.ar    1  UNL1        0.2612
      5 O          66.1009   92.7427   16.2782 O.2     1  UNL1       -0.2670
      6 N          65.5630   92.1695   13.8019 N.ar    1  UNL1       -0.2899
      7 C          64.7835   91.3823   12.7905 C.ar    1  UNL1        0.0783
      8 N          60.3644   86.0800    8.7072 N.pl3   1  UNL1       -0.2443
      9 C          60.5346   87.5139    9.1133 C.2     1  UNL1        0.3462
     10 N          59.8452   88.6934    8.4940 N.2     1  UNL1        0.0797
     11 N          60.3087   89.9285    9.2079 N.2     1  UNL1       -0.0381
     12 C          61.2845   89.5124   10.2684 C.2     1  UNL1        0.1169
     13 C          62.0640   90.2995   11.2797 C.3     1  UNL1        0.0763
     14 C          62.9830   89.5943   12.2326 C.2     1  UNL1       -0.0146
     15 C          63.1226   88.1020   12.1741 C.2     1  UNL1       -0.0035
     16 C          62.3432   87.3148   11.1627 C.2     1  UNL1        0.0085
     17 C          61.4242   88.0200   10.2099 C.2     1  UNL1        0.1018
     18 H          59.7539   85.8460    7.9712 H       1  UNL1        0.2885
     19 H          60.8632   85.3729    9.1767 H       1  UNL1        0.2885
     20 C          66.5840   93.1704   13.3484 C.3     1  UNL1        0.1380
     21 C          67.0257   93.1944   11.9151 C.ar    1  UNL1        0.0280
     22 C          66.4302   94.1890   10.9633 C.ar    1  UNL1       -0.0002
     23 C          66.8719   94.2130    9.5300 C.ar    1  UNL1       -0.0001
     24 C          67.9091   93.2423    9.0485 C.ar    1  UNL1        0.0023
     25 C          68.5047   92.2477   10.0003 C.ar    1  UNL1        0.0294
     26 C          68.0630   92.2237   11.4336 C.ar    1  UNL1        0.1380
     27 F          68.6586   91.2289   12.3854 F       1  UNL1       -0.2044
@<TRIPOS>BOND
     1     8     9    1
     2     9    10    2
     3    10    11    1
     4    11    12    2
     5    12    13    1
     6    13    14    1
     7    14     1    1
     8     1     2   ar
     9     2     3   ar
    10     3     4   ar
    11     4     5    2
    12     4     6   ar
    13     6    20    1
    14    20    21    1
    15    21    22   ar
    16    22    23   ar
    17    23    24   ar
    18    24    25   ar
    19    25    26   ar
    20    26    27    1
    21     6     7   ar
    22    14    15    2
    23    15    16    1
    24    16    17    2
    25    17     9    1
    26    17    12    1
    27     7     1   ar
    28    26    21   ar
    29     8    18    1
    30     8    19    1
@<TRIPOS>MOLECULE
*****
 27 30 0 0 0
SMALL
GASTEIGER

@<TRIPOS>ATOM
      1 C          61.5830   86.2879   10.4503 C.ar    1  UNL1        0.0139
      2 C          60.9685   85.9586    9.1221 C.ar    1  UNL1        0.0061
      3 C          60.4188   87.0543    8.2577 C.ar    1  UNL1        0.0608
      4 C          60.4836   88.4794    8.7215 C.ar    1  UNL1        0.2612
      5 O          59.9339   89.5751    7.8571 O.2     1  UNL1       -0.2670
      6 N          61.0981   88.8087   10.0497 N.ar    1  UNL1       -0.2899
      7 C          61.6478   87.7129   10.9140 C.ar    1  UNL1        0.0783
      8 N          64.1646   80.6817   13.9913 N.pl3   1  UNL1       -0.2443
      9 C          63.7758   82.1236   14.1320 C.2     1  UNL1        0.3462
     10 N          63.8625   82.9417   15.3863 N.2     1  UNL1        0.0797
     11 N          63.3723   84.3243   15.0726 N.2     1  UNL1       -0.0381
     12 C          62.9826   84.3606   13.6246 C.2     1  UNL1        0.1169
     13 C          62.4330   85.4564   12.7603 C.3     1  UNL1        0.0763
     14 C          62.1327   85.1920   11.3146 C.2     1  UNL1       -0.0146
     15 C          62.3820   83.8319   10.7333 C.2     1  UNL1       -0.0035
     16 C          62.9317   82.7362   11.5976 C.2     1  UNL1        0.0085
     17 C          63.2320   83.0005   13.0432 C.2     1  UNL1        0.1018
     18 H          64.5137   80.1879   14.7681 H       1  UNL1        0.2885
     19 H          64.0707   80.2292   13.1220 H       1  UNL1        0.2885
     20 C          61.1629   90.2337   10.5134 C.3     1  UNL1        0.1380
     21 C          62.4528   90.7952   11.0337 C.ar    1  UNL1        0.0280
     22 C          63.3711   91.5425   10.1128 C.ar    1  UNL1       -0.0002
     23 C          64.6611   92.1040   10.6331 C.ar    1  UNL1       -0.0001
     24 C          65.0328   91.9181   12.0743 C.ar    1  UNL1        0.0023
     25 C          64.1145   91.1708   12.9953 C.ar    1  UNL1        0.0294
     26 C          62.8245   90.6093   12.4750 C.ar    1  UNL1        0.1380
     27 F          61.9062   89.8620   13.3960 F       1  UNL1       -0.2044
@<TRIPOS>BOND
     1     8     9    1
     2     9    10    2
     3    10    11    1
     4    11    12    2
     5    12    13    1
     6    13    14    1
     7    14     1    1
     8     1     2   ar
     9     2     3   ar
    10     3     4   ar
    11     4     5    2
    12     4     6   ar
    13     6    20    1
    14    20    21    1
    15    21    22   ar
    16    22    23   ar
    17    23    24   ar
    18    24    25   ar
    19    25    26   ar
    20    26    27    1
    21     6     7   ar
    22    14    15    2
    23    15    16    1
    24    16    17    2
    25    17     9    1
    26    17    12    1
    27     7     1   ar
    28    26    21   ar
    29     8    18    1
    30     8    19    1
@<TRIPOS>MOLECULE
*****
 27 30 0 0 0
SMALL
GASTEIGER

@<TRIPOS>ATOM
      1 C          63.6395   87.4488   15.4885 C.ar    1  UNL1        0.0139
      2 C          63.0127   87.8842   16.7798 C.ar    1  UNL1        0.0061
      3 C          63.0442   89.3298   17.1789 C.ar    1  UNL1        0.0608
      4 C          63.7026   90.3400   16.2867 C.ar    1  UNL1        0.2612
      5 O          63.7341   91.7856   16.6858 O.2     1  UNL1       -0.2670
      6 N          64.3294   89.9046   14.9954 N.ar    1  UNL1       -0.2899
      7 C          64.2978   88.4590   14.5963 C.ar    1  UNL1        0.0783
      8 N          63.1906   80.4639   14.2072 N.pl3   1  UNL1       -0.2443
      9 C          63.6492   81.7701   13.6294 C.2     1  UNL1        0.3462
     10 N          64.2926   81.9635   12.2883 N.2     1  UNL1        0.0797
     11 N          64.5858   83.4250   12.1214 N.2     1  UNL1       -0.0381
     12 C          64.1237   84.1349   13.3594 C.2     1  UNL1        0.1169
     13 C          64.1553   85.5805   13.7584 C.3     1  UNL1        0.0763
     14 C          63.6079   86.0032   15.0894 C.2     1  UNL1       -0.0146
     15 C          63.0290   84.9803   16.0214 C.2     1  UNL1       -0.0035
     16 C          62.9975   83.5348   15.6224 C.2     1  UNL1        0.0085
     17 C          63.5448   83.1120   14.2914 C.2     1  UNL1        0.1018
     18 H          63.3028   79.6318   13.6931 H       1  UNL1        0.2885
     19 H          62.7774   80.4388   15.1004 H       1  UNL1        0.2885
     20 C          64.9877   90.9148   14.1032 C.3     1  UNL1        0.1380
     21 C          64.4556   91.1549   12.7214 C.ar    1  UNL1        0.0280
     22 C          63.2350   90.4216   12.2499 C.ar    1  UNL1       -0.0002
     23 C          62.7028   90.6617   10.8682 C.ar    1  UNL1       -0.0001
     24 C          63.3913   91.6351    9.9580 C.ar    1  UNL1        0.0023
     25 C          64.6119   92.3684   10.4295 C.ar    1  UNL1        0.0294
     26 C          65.1440   92.1283   11.8112 C.ar    1  UNL1        0.1380
     27 F          66.3647   92.8616   12.2827 F       1  UNL1       -0.2044
@<TRIPOS>BOND
     1     8     9    1
     2     9    10    2
     3    10    11    1
     4    11    12    2
     5    12    13    1
     6    13    14    1
     7    14     1    1
     8     1     2   ar
     9     2     3   ar
    10     3     4   ar
    11     4     5    2
    12     4     6   ar
    13     6    20    1
    14    20    21    1
    15    21    22   ar
    16    22    23   ar
    17    23    24   ar
    18    24    25   ar
    19    25    26   ar
    20    26    27    1
    21     6     7   ar
    22    14    15    2
    23    15    16    1
    24    16    17    2
    25    17     9    1
    26    17    12    1
    27     7     1   ar
    28    26    21   ar
    29     8    18    1
    30     8    19    1
@<TRIPOS>MOLECULE
*****
 27 30 0 0 0
SMALL
GASTEIGER

@<TRIPOS>ATOM
      1 C          62.8309   87.3781   12.1794 C.ar    1  UNL1        0.0139
      2 C          63.5014   88.3873   13.0637 C.ar    1  UNL1        0.0061
      3 C          64.3130   87.9320   14.2401 C.ar    1  UNL1        0.0608
      4 C          64.4543   86.4674   14.5322 C.ar    1  UNL1        0.2612
      5 O          65.2660   86.0121   15.7085 O.2     1  UNL1       -0.2670
      6 N          63.7839   85.4583   13.6478 N.ar    1  UNL1       -0.2899
      7 C          62.9722   85.9136   12.4714 C.ar    1  UNL1        0.0783
      8 N          59.3043   90.1481    6.6547 N.pl3   1  UNL1       -0.2443
      9 C          59.4643   88.9101    7.4864 C.2     1  UNL1        0.3462
     10 N          58.7208   87.6207    7.3004 N.2     1  UNL1        0.0797
     11 N          59.1929   86.6579    8.3492 N.2     1  UNL1       -0.0381
     12 C          60.2282   87.3523    9.1835 C.2     1  UNL1        0.1169
     13 C          61.0399   86.8969   10.3599 C.3     1  UNL1        0.0763
     14 C          62.0192   87.8335   11.0030 C.2     1  UNL1       -0.0146
     15 C          62.1870   89.2254   10.4697 C.2     1  UNL1       -0.0035
     16 C          61.3754   89.6808    9.2934 C.2     1  UNL1        0.0085
     17 C          60.3960   88.7442    8.6503 C.2     1  UNL1        0.1018
     18 H          58.6634   90.1597    5.9075 H       1  UNL1        0.2885
     19 H          59.8403   90.9490    6.8560 H       1  UNL1        0.2885
     20 C          63.9251   83.9938   13.9398 C.3     1  UNL1        0.1380
     21 C          63.6913   82.9864   12.8533 C.ar    1  UNL1        0.0280
     22 C          64.2940   83.1941   11.4956 C.ar    1  UNL1       -0.0002
     23 C          64.0602   82.1867   10.4091 C.ar    1  UNL1       -0.0001
     24 C          63.2235   80.9716   10.6803 C.ar    1  UNL1        0.0023
     25 C          62.6208   80.7639   12.0380 C.ar    1  UNL1        0.0294
     26 C          62.8546   81.7713   13.1245 C.ar    1  UNL1        0.1380
     27 F          62.2518   81.5636   14.4823 F       1  UNL1       -0.2044
@<TRIPOS>BOND
     1     8     9    1
     2     9    10    2
     3    10    11    1
     4    11    12    2
     5    12    13    1
     6    13    14    1
     7    14     1    1
     8     1     2   ar
     9     2     3   ar
    10     3     4   ar
    11     4     5    2
    12     4     6   ar
    13     6    20    1
    14    20    21    1
    15    21    22   ar
    16    22    23   ar
    17    23    24   ar
    18    24    25   ar
    19    25    26   ar
    20    26    27    1
    21     6     7   ar
    22    14    15    2
    23    15    16    1
    24    16    17    2
    25    17     9    1
    26    17    12    1
    27     7     1   ar
    28    26    21   ar
    29     8    18    1
    30     8    19    1
