@<TRIPOS>MOLECULE
*****
 36 39 0 0 0
SMALL
GASTEIGER

@<TRIPOS>ATOM
      1 N          63.5129   90.4262   10.3208 N.am    1  UNL1       -0.3005
      2 C          62.2598   89.8211   10.8810 C.2     1  UNL1        0.2456
      3 O          61.3254   90.6581   11.7033 O.2     1  UNL1       -0.2702
      4 H          64.1261   89.8768    9.7811 H       1  UNL1        0.1497
      5 C          61.9411   88.3790   10.6188 C.ar    1  UNL1        0.0523
      6 C          62.5194   87.3110   11.4991 C.ar    1  UNL1        0.0002
      7 C          63.4164   87.6852   12.6417 C.3     1  UNL1        0.0328
      8 C          62.2008   85.8689   11.2369 C.ar    1  UNL1        0.0774
      9 N          61.3039   85.4947   10.0943 N.ar    1  UNL1       -0.2457
     10 C          60.7255   86.5627    9.2139 C.ar    1  UNL1        0.0814
     11 C          59.8286   86.1885    8.0713 C.ar    1  UNL1        0.0196
     12 C          59.2503   87.2565    7.1910 C.ar    1  UNL1        0.0082
     13 C          59.5690   88.6986    7.4532 C.ar    1  UNL1        0.0347
     14 BR         58.9906   89.7665    6.5728 Br      1  UNL1       -0.0490
     15 C          60.4659   89.0728    8.5958 C.ar    1  UNL1        0.0083
     16 C          61.0442   88.0048    9.4761 C.ar    1  UNL1        0.0222
     17 C          62.7791   84.8009   12.1173 C.ar    1  UNL1        0.0173
     18 C          62.3924   84.7315   13.5649 C.ar    1  UNL1        0.0015
     19 C          62.9707   83.6635   14.4452 C.ar    1  UNL1        0.0000
     20 C          63.9358   82.6651   13.8779 C.ar    1  UNL1        0.0000
     21 C          64.3225   82.7346   12.4304 C.ar    1  UNL1        0.0000
     22 C          63.7442   83.8025   11.5500 C.ar    1  UNL1        0.0015
     23 C          63.8315   91.8683   10.5830 C.3     1  UNL1        0.0944
     24 C          65.1447   92.2457   11.2017 C.3     1  UNL1        0.0475
     25 C          66.5201   92.9464   14.8579 C.ar    1  UNL1        0.1384
     26 C          65.6855   91.9942   15.6620 C.ar    1  UNL1        0.0369
     27 C          64.6706   91.1258   14.9794 C.ar    1  UNL1        0.0028
     28 C          64.4904   91.2096   13.4926 C.ar    1  UNL1       -0.0040
     29 C          65.3250   92.1619   12.6885 C.ar    1  UNL1       -0.0175
     30 C          66.3398   93.0303   13.3712 C.ar    1  UNL1        0.0327
     31 C          68.9411   93.3251   15.7211 C.3     1  UNL1        0.2525
     32 O          67.5349   93.8148   15.5406 O.3     1  UNL1       -0.4714
     33 C          66.2778   92.7071   10.3337 C.3     1  UNL1        0.0478
     34 C          66.5372   94.1737   10.1558 C.2     1  UNL1        0.0507
     35 O          65.4496   95.1674   10.4379 O.co2   1  UNL1       -0.5492
     36 O          67.8843   94.6466    9.6957 O.co2   1  UNL1       -0.5492
@<TRIPOS>UNITY_ATOM_ATTR
35 1
charge -1
@<TRIPOS>BOND
     1    31    32    1
     2    32    25    1
     3    25    26   ar
     4    26    27   ar
     5    27    28   ar
     6    28    29   ar
     7    29    24    1
     8    24    23    1
     9    23     1    1
    10     1     2   am
    11     2     3    2
    12     2     5    1
    13     5     6   ar
    14     6     7    1
    15     6     8   ar
    16     8    17    1
    17    17    18   ar
    18    18    19   ar
    19    19    20   ar
    20    20    21   ar
    21    21    22   ar
    22     8     9   ar
    23     9    10   ar
    24    10    11   ar
    25    11    12   ar
    26    12    13   ar
    27    13    14    1
    28    13    15   ar
    29    15    16   ar
    30    24    33    1
    31    33    34    1
    32    34    35   ar
    33    34    36   ar
    34    29    30   ar
    35    30    25   ar
    36    16     5   ar
    37    22    17   ar
    38    16    10   ar
    39     1     4    1
@<TRIPOS>MOLECULE
*****
 36 39 0 0 0
SMALL
GASTEIGER

@<TRIPOS>ATOM
      1 N          63.5861   90.4614   10.5489 N.am    1  UNL1       -0.3005
      2 C          62.2532   89.8892   10.9309 C.2     1  UNL1        0.2456
      3 O          61.2160   90.7649   11.5691 O.2     1  UNL1       -0.2702
      4 H          64.2668   89.8866   10.1300 H       1  UNL1        0.1497
      5 C          61.9574   88.4411   10.6746 C.ar    1  UNL1        0.0523
      6 C          62.5501   87.3862   11.5610 C.ar    1  UNL1        0.0002
      7 C          63.4387   87.7794   12.7039 C.3     1  UNL1        0.0328
      8 C          62.2544   85.9382   11.3047 C.ar    1  UNL1        0.0774
      9 N          61.3659   85.5450   10.1619 N.ar    1  UNL1       -0.2457
     10 C          60.7731   86.5999    9.2754 C.ar    1  UNL1        0.0814
     11 C          59.8847   86.2067    8.1326 C.ar    1  UNL1        0.0196
     12 C          59.2919   87.2616    7.2462 C.ar    1  UNL1        0.0082
     13 C          59.5877   88.7097    7.5025 C.ar    1  UNL1        0.0347
     14 BR         58.9949   89.7646    6.6159 Br      1  UNL1       -0.0490
     15 C          60.4761   89.1028    8.6452 C.ar    1  UNL1        0.0083
     16 C          61.0689   88.0480    9.5317 C.ar    1  UNL1        0.0222
     17 C          62.8472   84.8833   12.1912 C.ar    1  UNL1        0.0173
     18 C          63.0898   85.1731   13.6428 C.ar    1  UNL1        0.0015
     19 C          63.6826   84.1182   14.5293 C.ar    1  UNL1        0.0000
     20 C          64.0327   82.7736   13.9641 C.ar    1  UNL1        0.0000
     21 C          63.7901   82.4838   12.5126 C.ar    1  UNL1        0.0000
     22 C          63.1973   83.5387   11.6261 C.ar    1  UNL1        0.0015
     23 C          63.8818   91.9095   10.8052 C.3     1  UNL1        0.0944
     24 C          65.1952   92.3115   11.4079 C.3     1  UNL1        0.0475
     25 C          67.2330   94.9963    9.3130 C.ar    1  UNL1        0.1384
     26 C          68.3823   94.1639    8.8269 C.ar    1  UNL1        0.0369
     27 C          68.4692   92.7139    9.2012 C.ar    1  UNL1        0.0028
     28 C          67.4068   92.0964   10.0616 C.ar    1  UNL1       -0.0040
     29 C          66.2576   92.9289   10.5476 C.ar    1  UNL1       -0.0175
     30 C          66.1707   94.3789   10.1733 C.ar    1  UNL1        0.0327
     31 C          66.4393   96.8550    7.6804 C.3     1  UNL1        0.2525
     32 O          67.1461   96.4463    8.9386 O.3     1  UNL1       -0.4714
     33 C          65.4463   92.0960   12.8710 C.3     1  UNL1        0.0478
     34 C          66.5554   92.8357   13.5585 C.2     1  UNL1        0.0507
     35 O          67.9231   92.2256   13.6449 O.co2   1  UNL1       -0.5492
     36 O          66.2969   94.1854   14.1597 O.co2   1  UNL1       -0.5492
@<TRIPOS>UNITY_ATOM_ATTR
35 1
charge -1
@<TRIPOS>BOND
     1    31    32    1
     2    32    25    1
     3    25    26   ar
     4    26    27   ar
     5    27    28   ar
     6    28    29   ar
     7    29    24    1
     8    24    23    1
     9    23     1    1
    10     1     2   am
    11     2     3    2
    12     2     5    1
    13     5     6   ar
    14     6     7    1
    15     6     8   ar
    16     8    17    1
    17    17    18   ar
    18    18    19   ar
    19    19    20   ar
    20    20    21   ar
    21    21    22   ar
    22     8     9   ar
    23     9    10   ar
    24    10    11   ar
    25    11    12   ar
    26    12    13   ar
    27    13    14    1
    28    13    15   ar
    29    15    16   ar
    30    24    33    1
    31    33    34    1
    32    34    35   ar
    33    34    36   ar
    34    29    30   ar
    35    30    25   ar
    36    16     5   ar
    37    22    17   ar
    38    16    10   ar
    39     1     4    1
@<TRIPOS>MOLECULE
*****
 36 39 0 0 0
SMALL
GASTEIGER

@<TRIPOS>ATOM
      1 N          62.7310   88.3527   11.5881 N.am    1  UNL1       -0.3005
      2 C          62.4470   89.8241   11.6537 C.2     1  UNL1        0.2456
      3 O          61.1109   90.3502   11.2202 O.2     1  UNL1       -0.2702
      4 H          63.6080   88.0074   11.8726 H       1  UNL1        0.1497
      5 C          63.4992   90.7695   12.1530 C.ar    1  UNL1        0.0523
      6 C          64.2060   91.6799   11.1929 C.ar    1  UNL1        0.0002
      7 C          63.8606   91.6449    9.7336 C.3     1  UNL1        0.0328
      8 C          65.2581   92.6252   11.6921 C.ar    1  UNL1        0.0774
      9 N          65.6036   92.6602   13.1514 N.ar    1  UNL1       -0.2457
     10 C          64.8968   91.7498   14.1115 C.ar    1  UNL1        0.0814
     11 C          65.2422   91.7848   15.5707 C.ar    1  UNL1        0.0196
     12 C          64.5355   90.8745   16.5307 C.ar    1  UNL1        0.0082
     13 C          63.4833   89.9291   16.0315 C.ar    1  UNL1        0.0347
     14 BR         62.7765   89.0187   16.9917 Br      1  UNL1       -0.0490
     15 C          63.1379   89.8941   14.5723 C.ar    1  UNL1        0.0083
     16 C          63.8446   90.8045   13.6123 C.ar    1  UNL1        0.0222
     17 C          65.9649   93.5356   10.7320 C.ar    1  UNL1        0.0173
     18 C          65.4959   94.9494   10.5555 C.ar    1  UNL1        0.0015
     19 C          66.2026   95.8597    9.5955 C.ar    1  UNL1        0.0000
     20 C          67.3784   95.3562    8.8119 C.ar    1  UNL1        0.0000
     21 C          67.8475   93.9424    8.9884 C.ar    1  UNL1        0.0000
     22 C          67.1407   93.0321    9.9484 C.ar    1  UNL1        0.0015
     23 C          61.6789   87.4073   11.0889 C.3     1  UNL1        0.0944
     24 C          62.0515   86.2982   10.1503 C.3     1  UNL1        0.0475
     25 C          63.2390   83.4617   12.6592 C.ar    1  UNL1        0.1384
     26 C          64.0216   82.5759   11.7358 C.ar    1  UNL1        0.0369
     27 C          64.1475   82.9308   10.2838 C.ar    1  UNL1        0.0028
     28 C          63.4908   84.1716    9.7553 C.ar    1  UNL1       -0.0040
     29 C          62.7082   85.0574   10.6788 C.ar    1  UNL1       -0.0175
     30 C          62.5823   84.7025   12.1308 C.ar    1  UNL1        0.0327
     31 C          62.3487   84.0039   15.0391 C.3     1  UNL1        0.2525
     32 O          63.1130   83.1068   14.1112 O.3     1  UNL1       -0.4714
     33 C          61.7674   86.4297    8.6834 C.3     1  UNL1        0.0478
     34 C          60.3656   86.2713    8.1737 C.2     1  UNL1        0.0507
     35 O          59.2590   87.1032    8.7514 O.co2   1  UNL1       -0.5492
     36 O          60.0703   85.2811    7.0864 O.co2   1  UNL1       -0.5492
@<TRIPOS>UNITY_ATOM_ATTR
35 1
charge -1
@<TRIPOS>BOND
     1    31    32    1
     2    32    25    1
     3    25    26   ar
     4    26    27   ar
     5    27    28   ar
     6    28    29   ar
     7    29    24    1
     8    24    23    1
     9    23     1    1
    10     1     2   am
    11     2     3    2
    12     2     5    1
    13     5     6   ar
    14     6     7    1
    15     6     8   ar
    16     8    17    1
    17    17    18   ar
    18    18    19   ar
    19    19    20   ar
    20    20    21   ar
    21    21    22   ar
    22     8     9   ar
    23     9    10   ar
    24    10    11   ar
    25    11    12   ar
    26    12    13   ar
    27    13    14    1
    28    13    15   ar
    29    15    16   ar
    30    24    33    1
    31    33    34    1
    32    34    35   ar
    33    34    36   ar
    34    29    30   ar
    35    30    25   ar
    36    16     5   ar
    37    22    17   ar
    38    16    10   ar
    39     1     4    1
@<TRIPOS>MOLECULE
*****
 36 39 0 0 0
SMALL
GASTEIGER

@<TRIPOS>ATOM
      1 N          64.3981   87.0555   13.8803 N.am    1  UNL1       -0.3005
      2 C          63.6577   88.3595   13.8444 C.2     1  UNL1        0.2456
      3 O          63.2344   89.0172   15.1243 O.2     1  UNL1       -0.2702
      4 H          64.6759   86.6238   13.0403 H       1  UNL1        0.1497
      5 C          63.3405   89.0059   12.5284 C.ar    1  UNL1        0.0523
      6 C          62.4193   88.3241   11.5607 C.ar    1  UNL1        0.0002
      7 C          61.8153   86.9959   11.9089 C.3     1  UNL1        0.0328
      8 C          62.1021   88.9704   10.2448 C.ar    1  UNL1        0.0774
      9 N          62.7061   90.2985    9.8966 N.ar    1  UNL1       -0.2457
     10 C          63.6273   90.9803   10.8643 C.ar    1  UNL1        0.0814
     11 C          64.2313   92.3084   10.5161 C.ar    1  UNL1        0.0196
     12 C          65.1525   92.9902   11.4839 C.ar    1  UNL1        0.0082
     13 C          65.4697   92.3439   12.7998 C.ar    1  UNL1        0.0347
     14 BR         66.3909   93.0258   13.7676 Br      1  UNL1       -0.0490
     15 C          64.8657   91.0158   13.1480 C.ar    1  UNL1        0.0083
     16 C          63.9445   90.3340   12.1803 C.ar    1  UNL1        0.0222
     17 C          61.1809   88.2885    9.2770 C.ar    1  UNL1        0.0173
     18 C          60.0765   89.0625    8.6204 C.ar    1  UNL1        0.0015
     19 C          59.1554   88.3807    7.6527 C.ar    1  UNL1        0.0000
     20 C          59.3386   86.9248    7.3416 C.ar    1  UNL1        0.0000
     21 C          60.4430   86.1507    7.9982 C.ar    1  UNL1        0.0000
     22 C          61.3641   86.8326    8.9659 C.ar    1  UNL1        0.0015
     23 C          64.7153   86.4092   15.1963 C.3     1  UNL1        0.0944
     24 C          63.8780   85.2679   15.6925 C.3     1  UNL1        0.0475
     25 C          63.9957   82.7922   12.5930 C.ar    1  UNL1        0.1384
     26 C          62.8903   81.8420   12.9470 C.ar    1  UNL1        0.0369
     27 C          62.1142   82.0338   14.2161 C.ar    1  UNL1        0.0028
     28 C          62.4434   83.1758   15.1313 C.ar    1  UNL1       -0.0040
     29 C          63.5487   84.1259   14.7773 C.ar    1  UNL1       -0.0175
     30 C          64.3249   83.9341   13.5081 C.ar    1  UNL1        0.0327
     31 C          64.1870   83.0380   10.0136 C.3     1  UNL1        0.2525
     32 O          64.7718   82.6004   11.3237 O.3     1  UNL1       -0.4714
     33 C          63.3699   85.2685   17.1038 C.3     1  UNL1        0.0478
     34 C          62.3752   86.3021   17.5423 C.2     1  UNL1        0.0507
     35 O          61.0095   86.3390   16.9230 O.co2   1  UNL1       -0.5492
     36 O          62.7462   87.2987   18.6002 O.co2   1  UNL1       -0.5492
@<TRIPOS>UNITY_ATOM_ATTR
35 1
charge -1
@<TRIPOS>BOND
     1    31    32    1
     2    32    25    1
     3    25    26   ar
     4    26    27   ar
     5    27    28   ar
     6    28    29   ar
     7    29    24    1
     8    24    23    1
     9    23     1    1
    10     1     2   am
    11     2     3    2
    12     2     5    1
    13     5     6   ar
    14     6     7    1
    15     6     8   ar
    16     8    17    1
    17    17    18   ar
    18    18    19   ar
    19    19    20   ar
    20    20    21   ar
    21    21    22   ar
    22     8     9   ar
    23     9    10   ar
    24    10    11   ar
    25    11    12   ar
    26    12    13   ar
    27    13    14    1
    28    13    15   ar
    29    15    16   ar
    30    24    33    1
    31    33    34    1
    32    34    35   ar
    33    34    36   ar
    34    29    30   ar
    35    30    25   ar
    36    16     5   ar
    37    22    17   ar
    38    16    10   ar
    39     1     4    1
@<TRIPOS>MOLECULE
*****
 36 39 0 0 0
SMALL
GASTEIGER

@<TRIPOS>ATOM
      1 N          64.2086   88.3308   14.0398 N.am    1  UNL1       -0.3005
      2 C          63.8209   89.7792   13.9948 C.2     1  UNL1        0.2456
      3 O          63.5390   90.5200   15.2682 O.2     1  UNL1       -0.2702
      4 H          64.3937   87.8445   13.2040 H       1  UNL1        0.1497
      5 C          63.7150   90.4866   12.6763 C.ar    1  UNL1        0.0523
      6 C          64.8243   91.3853   12.2161 C.ar    1  UNL1        0.0002
      7 C          66.0395   91.5766   13.0745 C.3     1  UNL1        0.0328
      8 C          64.7184   92.0927   10.8977 C.ar    1  UNL1        0.0774
      9 N          63.5033   91.9014   10.0393 N.ar    1  UNL1       -0.2457
     10 C          62.3939   91.0027   10.4995 C.ar    1  UNL1        0.0814
     11 C          61.1788   90.8114    9.6411 C.ar    1  UNL1        0.0196
     12 C          60.0695   89.9127   10.1013 C.ar    1  UNL1        0.0082
     13 C          60.1753   89.2053   11.4198 C.ar    1  UNL1        0.0347
     14 BR         59.0660   88.3065   11.8799 Br      1  UNL1       -0.0490
     15 C          61.3905   89.3966   12.2781 C.ar    1  UNL1        0.0083
     16 C          62.4998   90.2953   11.8179 C.ar    1  UNL1        0.0222
     17 C          65.8278   92.9914   10.4375 C.ar    1  UNL1        0.0173
     18 C          65.6863   94.4798   10.5584 C.ar    1  UNL1        0.0015
     19 C          66.7956   95.3784   10.0983 C.ar    1  UNL1        0.0000
     20 C          68.0465   94.7887    9.5173 C.ar    1  UNL1        0.0000
     21 C          68.1880   93.3003    9.3964 C.ar    1  UNL1        0.0000
     22 C          67.0787   92.4017    9.8565 C.ar    1  UNL1        0.0015
     23 C          64.3145   87.6234   15.3583 C.3     1  UNL1        0.0944
     24 C          63.8998   86.1866   15.4739 C.3     1  UNL1        0.0475
     25 C          63.0717   84.7597   11.8644 C.ar    1  UNL1        0.1384
     26 C          63.9368   83.5346   11.8386 C.ar    1  UNL1        0.0369
     27 C          64.7896   83.1934   13.0245 C.ar    1  UNL1        0.0028
     28 C          64.7773   84.0775   14.2363 C.ar    1  UNL1       -0.0040
     29 C          63.9121   85.3026   14.2622 C.ar    1  UNL1       -0.0175
     30 C          63.0593   85.6436   13.0762 C.ar    1  UNL1        0.0327
     31 C          62.0936   86.5266   10.2300 C.3     1  UNL1        0.2525
     32 O          62.2189   85.1007   10.6785 O.3     1  UNL1       -0.4714
     33 C          63.4726   85.6337   16.8013 C.3     1  UNL1        0.0478
     34 C          62.3434   86.2745   17.5523 C.2     1  UNL1        0.0507
     35 O          62.5842   86.8611   18.9118 O.co2   1  UNL1       -0.5492
     36 O          60.9734   86.3288   16.9441 O.co2   1  UNL1       -0.5492
@<TRIPOS>UNITY_ATOM_ATTR
35 1
charge -1
@<TRIPOS>BOND
     1    31    32    1
     2    32    25    1
     3    25    26   ar
     4    26    27   ar
     5    27    28   ar
     6    28    29   ar
     7    29    24    1
     8    24    23    1
     9    23     1    1
    10     1     2   am
    11     2     3    2
    12     2     5    1
    13     5     6   ar
    14     6     7    1
    15     6     8   ar
    16     8    17    1
    17    17    18   ar
    18    18    19   ar
    19    19    20   ar
    20    20    21   ar
    21    21    22   ar
    22     8     9   ar
    23     9    10   ar
    24    10    11   ar
    25    11    12   ar
    26    12    13   ar
    27    13    14    1
    28    13    15   ar
    29    15    16   ar
    30    24    33    1
    31    33    34    1
    32    34    35   ar
    33    34    36   ar
    34    29    30   ar
    35    30    25   ar
    36    16     5   ar
    37    22    17   ar
    38    16    10   ar
    39     1     4    1
@<TRIPOS>MOLECULE
*****
 36 39 0 0 0
SMALL
GASTEIGER

@<TRIPOS>ATOM
      1 N          64.5199   90.4176   12.8151 N.am    1  UNL1       -0.3005
      2 C          63.3596   89.5915   13.2859 C.2     1  UNL1        0.2456
      3 O          62.7090   89.8941   14.6031 O.2     1  UNL1       -0.2702
      4 H          64.9469   90.2190   11.9506 H       1  UNL1        0.1497
      5 C          62.8501   88.4630   12.4393 C.ar    1  UNL1        0.0523
      6 C          61.9709   88.7491   11.2582 C.ar    1  UNL1        0.0002
      7 C          61.6013   90.1638   10.9235 C.3     1  UNL1        0.0328
      8 C          61.4613   87.6205   10.4116 C.ar    1  UNL1        0.0774
      9 N          61.8309   86.2058   10.7462 N.ar    1  UNL1       -0.2457
     10 C          62.7101   85.9196   11.9275 C.ar    1  UNL1        0.0814
     11 C          63.0796   84.5049   12.2621 C.ar    1  UNL1        0.0196
     12 C          63.9588   84.2188   13.4432 C.ar    1  UNL1        0.0082
     13 C          64.4683   85.3474   14.2898 C.ar    1  UNL1        0.0347
     14 BR         65.3475   85.0612   15.4710 Br      1  UNL1       -0.0490
     15 C          64.0988   86.7621   13.9552 C.ar    1  UNL1        0.0083
     16 C          63.2197   87.0482   12.7740 C.ar    1  UNL1        0.0222
     17 C          60.5821   87.9067    9.2304 C.ar    1  UNL1        0.0173
     18 C          59.7995   86.7978    8.5918 C.ar    1  UNL1        0.0015
     19 C          58.9204   87.0840    7.4107 C.ar    1  UNL1        0.0000
     20 C          58.8239   88.4791    6.8681 C.ar    1  UNL1        0.0000
     21 C          59.6065   89.5880    7.5067 C.ar    1  UNL1        0.0000
     22 C          60.4856   89.3018    8.6878 C.ar    1  UNL1        0.0015
     23 C          65.0295   91.5462   13.6617 C.3     1  UNL1        0.0944
     24 C          66.3825   92.1346   13.3917 C.3     1  UNL1        0.0475
     25 C          67.3566   93.5807    9.8266 C.ar    1  UNL1        0.1384
     26 C          66.9433   95.0145    9.9797 C.ar    1  UNL1        0.0369
     27 C          66.3430   95.4883   11.2701 C.ar    1  UNL1        0.0028
     28 C          66.1561   94.5284   12.4075 C.ar    1  UNL1       -0.0040
     29 C          66.5694   93.0946   12.2544 C.ar    1  UNL1       -0.0175
     30 C          67.1697   92.6208   10.9639 C.ar    1  UNL1        0.0327
     31 C          68.9882   92.0178    8.5439 C.3     1  UNL1        0.2525
     32 O          67.9568   93.1069    8.5361 O.3     1  UNL1       -0.4714
     33 C          67.5486   91.7631   14.2589 C.3     1  UNL1        0.0478
     34 C          67.6862   92.3615   15.6275 C.2     1  UNL1        0.0507
     35 O          66.4755   92.8832   16.3431 O.co2   1  UNL1       -0.5492
     36 O          69.0344   92.4382   16.2804 O.co2   1  UNL1       -0.5492
@<TRIPOS>UNITY_ATOM_ATTR
35 1
charge -1
@<TRIPOS>BOND
     1    31    32    1
     2    32    25    1
     3    25    26   ar
     4    26    27   ar
     5    27    28   ar
     6    28    29   ar
     7    29    24    1
     8    24    23    1
     9    23     1    1
    10     1     2   am
    11     2     3    2
    12     2     5    1
    13     5     6   ar
    14     6     7    1
    15     6     8   ar
    16     8    17    1
    17    17    18   ar
    18    18    19   ar
    19    19    20   ar
    20    20    21   ar
    21    21    22   ar
    22     8     9   ar
    23     9    10   ar
    24    10    11   ar
    25    11    12   ar
    26    12    13   ar
    27    13    14    1
    28    13    15   ar
    29    15    16   ar
    30    24    33    1
    31    33    34    1
    32    34    35   ar
    33    34    36   ar
    34    29    30   ar
    35    30    25   ar
    36    16     5   ar
    37    22    17   ar
    38    16    10   ar
    39     1     4    1
@<TRIPOS>MOLECULE
*****
 36 39 0 0 0
SMALL
GASTEIGER

@<TRIPOS>ATOM
      1 N          63.3145   85.1105   10.7614 N.am    1  UNL1       -0.3005
      2 C          62.2739   85.9255   11.4705 C.2     1  UNL1        0.2456
      3 O          61.2228   85.2452   12.2966 O.2     1  UNL1       -0.2702
      4 H          64.0044   85.5570   10.2192 H       1  UNL1        0.1497
      5 C          62.2844   87.4209   11.3535 C.ar    1  UNL1        0.0523
      6 C          63.1116   88.2413   12.2983 C.ar    1  UNL1        0.0002
      7 C          63.9283   87.5664   13.3601 C.3     1  UNL1        0.0328
      8 C          63.1220   89.7367   12.1813 C.ar    1  UNL1        0.0774
      9 N          62.3053   90.4117   11.1196 N.ar    1  UNL1       -0.2457
     10 C          61.4781   89.5913   10.1748 C.ar    1  UNL1        0.0814
     11 C          60.6613   90.2663    9.1130 C.ar    1  UNL1        0.0196
     12 C          59.8341   89.4459    8.1683 C.ar    1  UNL1        0.0082
     13 C          59.8236   87.9505    8.2853 C.ar    1  UNL1        0.0347
     14 BR         58.9964   87.1301    7.3404 Br      1  UNL1       -0.0490
     15 C          60.6404   87.2755    9.3470 C.ar    1  UNL1        0.0083
     16 C          61.4676   88.0959   10.2917 C.ar    1  UNL1        0.0222
     17 C          63.9493   90.5571   13.1262 C.ar    1  UNL1        0.0173
     18 C          65.0321   91.4487   12.5946 C.ar    1  UNL1        0.0015
     19 C          65.8593   92.2691   13.5394 C.ar    1  UNL1        0.0000
     20 C          65.6037   92.1978   15.0158 C.ar    1  UNL1        0.0000
     21 C          64.5209   91.3063   15.5473 C.ar    1  UNL1        0.0000
     22 C          63.6937   90.4859   14.6025 C.ar    1  UNL1        0.0015
     23 C          63.3040   83.6151   10.8783 C.3     1  UNL1        0.0944
     24 C          63.2109   82.9690   12.2288 C.3     1  UNL1        0.0475
     25 C          63.0999   84.8918   15.6988 C.ar    1  UNL1        0.1384
     26 C          64.5527   85.2108   15.8927 C.ar    1  UNL1        0.0369
     27 C          65.5582   84.7826   14.8653 C.ar    1  UNL1        0.0028
     28 C          65.1110   84.0353   13.6439 C.ar    1  UNL1       -0.0040
     29 C          63.6582   83.7163   13.4501 C.ar    1  UNL1       -0.0175
     30 C          62.6526   84.1445   14.4775 C.ar    1  UNL1        0.0327
     31 C          62.4362   86.4057   17.7032 C.3     1  UNL1        0.2525
     32 O          62.0944   85.3200   16.7263 O.3     1  UNL1       -0.4714
     33 C          62.6704   81.5758   12.3581 C.3     1  UNL1        0.0478
     34 C          62.4388   80.9842   13.7169 C.2     1  UNL1        0.0507
     35 O          63.5445   80.2463   14.4120 O.co2   1  UNL1       -0.5492
     36 O          61.1017   81.1305   14.3806 O.co2   1  UNL1       -0.5492
@<TRIPOS>UNITY_ATOM_ATTR
35 1
charge -1
@<TRIPOS>BOND
     1    31    32    1
     2    32    25    1
     3    25    26   ar
     4    26    27   ar
     5    27    28   ar
     6    28    29   ar
     7    29    24    1
     8    24    23    1
     9    23     1    1
    10     1     2   am
    11     2     3    2
    12     2     5    1
    13     5     6   ar
    14     6     7    1
    15     6     8   ar
    16     8    17    1
    17    17    18   ar
    18    18    19   ar
    19    19    20   ar
    20    20    21   ar
    21    21    22   ar
    22     8     9   ar
    23     9    10   ar
    24    10    11   ar
    25    11    12   ar
    26    12    13   ar
    27    13    14    1
    28    13    15   ar
    29    15    16   ar
    30    24    33    1
    31    33    34    1
    32    34    35   ar
    33    34    36   ar
    34    29    30   ar
    35    30    25   ar
    36    16     5   ar
    37    22    17   ar
    38    16    10   ar
    39     1     4    1
@<TRIPOS>MOLECULE
*****
 36 39 0 0 0
SMALL
GASTEIGER

@<TRIPOS>ATOM
      1 N          62.7325   88.5063   12.0788 N.am    1  UNL1       -0.3005
      2 C          62.5976   89.9649   11.7558 C.2     1  UNL1        0.2456
      3 O          61.4139   90.4538   10.9750 O.2     1  UNL1       -0.2702
      4 H          63.5094   88.1854   12.5913 H       1  UNL1        0.1497
      5 C          63.6465   90.9346   12.2136 C.ar    1  UNL1        0.0523
      6 C          64.3401   91.8151   11.2169 C.ar    1  UNL1        0.0002
      7 C          63.9849   91.7259    9.7622 C.3     1  UNL1        0.0328
      8 C          65.3890   92.7847   11.6747 C.ar    1  UNL1        0.0774
      9 N          65.7442   92.8739   13.1293 N.ar    1  UNL1       -0.2457
     10 C          65.0506   91.9934   14.1261 C.ar    1  UNL1        0.0814
     11 C          65.4058   92.0826   15.5807 C.ar    1  UNL1        0.0196
     12 C          64.7121   91.2022   16.5774 C.ar    1  UNL1        0.0082
     13 C          63.6632   90.2325   16.1196 C.ar    1  UNL1        0.0347
     14 BR         62.9696   89.3520   17.1164 Br      1  UNL1       -0.0490
     15 C          63.3080   90.1433   14.6650 C.ar    1  UNL1        0.0083
     16 C          64.0017   91.0238   13.6683 C.ar    1  UNL1        0.0222
     17 C          66.0827   93.6652   10.6779 C.ar    1  UNL1        0.0173
     18 C          65.6360   95.0851   10.4926 C.ar    1  UNL1        0.0015
     19 C          66.3297   95.9655    9.4958 C.ar    1  UNL1        0.0000
     20 C          67.4700   95.4261    8.6843 C.ar    1  UNL1        0.0000
     21 C          67.9167   94.0062    8.8695 C.ar    1  UNL1        0.0000
     22 C          67.2230   93.1258    9.8663 C.ar    1  UNL1        0.0015
     23 C          61.6836   87.5366   11.6210 C.3     1  UNL1        0.0944
     24 C          62.0781   86.3188   10.8392 C.3     1  UNL1        0.0475
     25 C          61.7686   85.1439    7.0611 C.ar    1  UNL1        0.1384
     26 C          60.3984   85.6489    6.7186 C.ar    1  UNL1        0.0369
     27 C          59.5880   86.3771    7.7495 C.ar    1  UNL1        0.0028
     28 C          60.1479   86.6005    9.1231 C.ar    1  UNL1       -0.0040
     29 C          61.5182   86.0955    9.4657 C.ar    1  UNL1       -0.0175
     30 C          62.3286   85.3672    8.4346 C.ar    1  UNL1        0.0327
     31 C          61.9694   84.0701    4.7039 C.3     1  UNL1        0.2525
     32 O          62.5790   84.4156    6.0301 O.3     1  UNL1       -0.4714
     33 C          63.0325   85.3244   11.4309 C.3     1  UNL1        0.0478
     34 C          63.0583   85.1001   12.9137 C.2     1  UNL1        0.0507
     35 O          62.4185   83.8756   13.4983 O.co2   1  UNL1       -0.5492
     36 O          63.7237   86.1001   13.8121 O.co2   1  UNL1       -0.5492
@<TRIPOS>UNITY_ATOM_ATTR
35 1
charge -1
@<TRIPOS>BOND
     1    31    32    1
     2    32    25    1
     3    25    26   ar
     4    26    27   ar
     5    27    28   ar
     6    28    29   ar
     7    29    24    1
     8    24    23    1
     9    23     1    1
    10     1     2   am
    11     2     3    2
    12     2     5    1
    13     5     6   ar
    14     6     7    1
    15     6     8   ar
    16     8    17    1
    17    17    18   ar
    18    18    19   ar
    19    19    20   ar
    20    20    21   ar
    21    21    22   ar
    22     8     9   ar
    23     9    10   ar
    24    10    11   ar
    25    11    12   ar
    26    12    13   ar
    27    13    14    1
    28    13    15   ar
    29    15    16   ar
    30    24    33    1
    31    33    34    1
    32    34    35   ar
    33    34    36   ar
    34    29    30   ar
    35    30    25   ar
    36    16     5   ar
    37    22    17   ar
    38    16    10   ar
    39     1     4    1
