@<TRIPOS>MOLECULE
*****
 26 28 0 0 0
SMALL
GASTEIGER

@<TRIPOS>ATOM
      1 C          61.9524   87.1948   11.0871 C.ar    1  UNL1        0.0218
      2 C          60.5013   87.4701   10.8252 C.ar    1  UNL1        0.0989
      3 N          59.9372   88.8347   11.0894 N.ar    1  UNL1       -0.2426
      4 C          60.8243   89.9240   11.6154 C.ar    1  UNL1        0.0962
      5 C          62.2754   89.6487   11.8772 C.ar    1  UNL1        0.0166
      6 C          62.8394   88.2840   11.6131 C.ar    1  UNL1        0.0006
      7 C          62.7241   84.8719   11.9580 C.ar    1  UNL1        0.1409
      8 C          63.2881   83.5073   11.6938 C.ar    1  UNL1        0.0665
      9 C          63.6444   83.1011   10.2945 C.ar    1  UNL1        0.1432
     10 F          64.2084   81.7364   10.0304 F       1  UNL1       -0.2041
     11 C          63.4367   84.0594    9.1594 C.ar    1  UNL1        0.0298
     12 C          62.8727   85.4239    9.4236 C.ar    1  UNL1        0.0054
     13 C          62.5164   85.8302   10.8229 C.ar    1  UNL1        0.0356
     14 C          62.8193   84.4431   14.5187 C.3     1  UNL1        0.2525
     15 O          62.3678   85.2782   13.3573 O.3     1  UNL1       -0.4714
     16 C          63.1624   90.7379   12.4032 C.3     1  UNL1        0.1182
     17 N          64.0675   91.4847   11.4689 N.am    1  UNL1       -0.2956
     18 C          65.1387   92.3798   12.0180 C.2     1  UNL1        0.2654
     19 O          65.3048   92.5280   13.5014 O.2     1  UNL1       -0.2684
     20 H          63.9585   91.3875   10.4953 H       1  UNL1        0.1501
     21 C          66.0438   93.1266   11.0837 C.ar    1  UNL1        0.1535
     22 C          67.3093   92.4871   10.5942 C.ar    1  UNL1        0.1226
     23 N          68.2144   93.2339    9.6599 N.ar    1  UNL1       -0.2390
     24 C          67.8541   94.6204    9.2150 C.ar    1  UNL1        0.1195
     25 C          66.5886   95.2600    9.7044 C.ar    1  UNL1        0.1196
     26 N          65.6835   94.5131   10.6388 N.ar    1  UNL1       -0.2360
@<TRIPOS>BOND
     1    14    15    1
     2    15     7    1
     3     7     8   ar
     4     8     9   ar
     5     9    10    1
     6     9    11   ar
     7    11    12   ar
     8    12    13   ar
     9    13     1    1
    10     1     2   ar
    11     2     3   ar
    12     3     4   ar
    13     4     5   ar
    14     5    16    1
    15    16    17    1
    16    17    18   am
    17    18    19    2
    18    18    21    1
    19    21    22   ar
    20    22    23   ar
    21    23    24   ar
    22    24    25   ar
    23    25    26   ar
    24     5     6   ar
    25    13     7   ar
    26     6     1   ar
    27    26    21   ar
    28    17    20    1
@<TRIPOS>MOLECULE
*****
 26 28 0 0 0
SMALL
GASTEIGER

@<TRIPOS>ATOM
      1 C          61.3868   87.9069   10.0207 C.ar    1  UNL1        0.0218
      2 C          60.2753   87.8495   11.0263 C.ar    1  UNL1        0.0989
      3 N          60.1709   88.9022   12.0897 N.ar    1  UNL1       -0.2426
      4 C          61.1780   90.0124   12.1475 C.ar    1  UNL1        0.0962
      5 C          62.2895   90.0698   11.1419 C.ar    1  UNL1        0.0166
      6 C          62.3939   89.0170   10.0784 C.ar    1  UNL1        0.0006
      7 C          60.3757   86.6707    7.9713 C.ar    1  UNL1        0.1409
      8 C          60.4801   85.6180    6.9080 C.ar    1  UNL1        0.0665
      9 C          61.6999   84.7485    6.8306 C.ar    1  UNL1        0.1432
     10 F          61.8043   83.6957    5.7671 F       1  UNL1       -0.2041
     11 C          62.8154   84.9319    7.8165 C.ar    1  UNL1        0.0298
     12 C          62.7110   85.9846    8.8798 C.ar    1  UNL1        0.0054
     13 C          61.4911   86.8541    8.9572 C.ar    1  UNL1        0.0356
     14 C          59.0914   88.8141    7.2595 C.3     1  UNL1        0.2525
     15 O          59.1558   87.5402    8.0487 O.3     1  UNL1       -0.4714
     16 C          63.2966   91.1798   11.1996 C.3     1  UNL1        0.1182
     17 N          64.2467   91.2710   12.3568 N.am    1  UNL1       -0.2956
     18 C          65.2903   92.3481   12.3872 C.2     1  UNL1        0.2654
     19 O          65.3838   93.3339   11.2605 O.2     1  UNL1       -0.2684
     20 H          64.1853   90.6240   13.0962 H       1  UNL1        0.1501
     21 C          66.2404   92.4393   13.5444 C.ar    1  UNL1        0.1535
     22 C          67.7143   92.2749   13.3194 C.ar    1  UNL1        0.1226
     23 N          68.6643   92.3661   14.4766 N.ar    1  UNL1       -0.2390
     24 C          68.1405   92.6217   15.8587 C.ar    1  UNL1        0.1195
     25 C          66.6666   92.7861   16.0837 C.ar    1  UNL1        0.1196
     26 N          65.7165   92.6949   14.9265 N.ar    1  UNL1       -0.2360
@<TRIPOS>BOND
     1    14    15    1
     2    15     7    1
     3     7     8   ar
     4     8     9   ar
     5     9    10    1
     6     9    11   ar
     7    11    12   ar
     8    12    13   ar
     9    13     1    1
    10     1     2   ar
    11     2     3   ar
    12     3     4   ar
    13     4     5   ar
    14     5    16    1
    15    16    17    1
    16    17    18   am
    17    18    19    2
    18    18    21    1
    19    21    22   ar
    20    22    23   ar
    21    23    24   ar
    22    24    25   ar
    23    25    26   ar
    24     5     6   ar
    25    13     7   ar
    26     6     1   ar
    27    26    21   ar
    28    17    20    1
@<TRIPOS>MOLECULE
*****
 26 28 0 0 0
SMALL
GASTEIGER

@<TRIPOS>ATOM
      1 C          62.7419   87.7660   11.9507 C.ar    1  UNL1        0.0218
      2 C          63.2106   86.7622   12.9620 C.ar    1  UNL1        0.0989
      3 N          64.0250   87.2084   14.1399 N.ar    1  UNL1       -0.2426
      4 C          64.3707   88.6585   14.3067 C.ar    1  UNL1        0.0962
      5 C          63.9020   89.6623   13.2954 C.ar    1  UNL1        0.0166
      6 C          63.0876   89.2161   12.1174 C.ar    1  UNL1        0.0006
      7 C          60.4802   87.7011   10.6738 C.ar    1  UNL1        0.1409
      8 C          59.6659   87.2548    9.4958 C.ar    1  UNL1        0.0665
      9 C          60.2988   86.4271    8.4168 C.ar    1  UNL1        0.1432
     10 F          59.4844   85.9808    7.2388 F       1  UNL1       -0.2041
     11 C          61.7461   86.0457    8.5157 C.ar    1  UNL1        0.0298
     12 C          62.5604   86.4920    9.6937 C.ar    1  UNL1        0.0054
     13 C          61.9275   87.3197   10.7727 C.ar    1  UNL1        0.0356
     14 C          59.5566   89.9804   11.5114 C.3     1  UNL1        0.2525
     15 O          59.8472   88.5288   11.7528 O.3     1  UNL1       -0.4714
     16 C          64.2477   91.1124   13.4621 C.3     1  UNL1        0.1182
     17 N          64.8638   91.8720   12.3249 N.am    1  UNL1       -0.2956
     18 C          65.7921   93.0170   12.6034 C.2     1  UNL1        0.2654
     19 O          66.1041   93.4023   14.0191 O.2     1  UNL1       -0.2684
     20 H          64.6591   91.6191   11.3957 H       1  UNL1        0.1501
     21 C          66.4083   93.7766   11.4662 C.ar    1  UNL1        0.1535
     22 C          66.1567   95.2485   11.3238 C.ar    1  UNL1        0.1226
     23 N          66.7729   96.0081   10.1866 N.ar    1  UNL1       -0.2390
     24 C          67.6407   95.2958    9.1917 C.ar    1  UNL1        0.1195
     25 C          67.8922   93.8239    9.3341 C.ar    1  UNL1        0.1196
     26 N          67.2760   93.0643   10.4714 N.ar    1  UNL1       -0.2360
@<TRIPOS>BOND
     1    14    15    1
     2    15     7    1
     3     7     8   ar
     4     8     9   ar
     5     9    10    1
     6     9    11   ar
     7    11    12   ar
     8    12    13   ar
     9    13     1    1
    10     1     2   ar
    11     2     3   ar
    12     3     4   ar
    13     4     5   ar
    14     5    16    1
    15    16    17    1
    16    17    18   am
    17    18    19    2
    18    18    21    1
    19    21    22   ar
    20    22    23   ar
    21    23    24   ar
    22    24    25   ar
    23    25    26   ar
    24     5     6   ar
    25    13     7   ar
    26     6     1   ar
    27    26    21   ar
    28    17    20    1
@<TRIPOS>MOLECULE
*****
 26 28 0 0 0
SMALL
GASTEIGER

@<TRIPOS>ATOM
      1 C          61.8933   87.2755   11.0288 C.ar    1  UNL1        0.0218
      2 C          60.4048   87.3868   11.1774 C.ar    1  UNL1        0.0989
      3 N          59.7734   88.7253   11.4219 N.ar    1  UNL1       -0.2426
      4 C          60.6306   89.9526   11.5177 C.ar    1  UNL1        0.0962
      5 C          62.1190   89.8413   11.3691 C.ar    1  UNL1        0.0166
      6 C          62.7504   88.5028   11.1247 C.ar    1  UNL1        0.0006
      7 C          62.9207   85.0716   11.9438 C.ar    1  UNL1        0.1409
      8 C          63.5520   83.7331   11.6993 C.ar    1  UNL1        0.0665
      9 C          63.7872   83.2600   10.2954 C.ar    1  UNL1        0.1432
     10 F          64.4186   81.9214   10.0510 F       1  UNL1       -0.2041
     11 C          63.3911   84.1253    9.1361 C.ar    1  UNL1        0.0298
     12 C          62.7598   85.4638    9.3805 C.ar    1  UNL1        0.0054
     13 C          62.5246   85.9370   10.7844 C.ar    1  UNL1        0.0356
     14 C          63.4556   84.9376   14.4827 C.3     1  UNL1        0.2525
     15 O          62.6855   85.5448   13.3476 O.3     1  UNL1       -0.4714
     16 C          62.9761   91.0686   11.4650 C.3     1  UNL1        0.1182
     17 N          63.9685   91.2049   12.5814 N.am    1  UNL1       -0.2956
     18 C          65.1039   92.1779   12.4611 C.2     1  UNL1        0.2654
     19 O          65.2468   93.0144   11.2243 O.2     1  UNL1       -0.2684
     20 H          63.8747   90.6558   13.3932 H       1  UNL1        0.1501
     21 C          66.0963   92.3142   13.5775 C.ar    1  UNL1        0.1535
     22 C          67.5634   92.1739   13.2983 C.ar    1  UNL1        0.1226
     23 N          68.5558   92.3102   14.4147 N.ar    1  UNL1       -0.2390
     24 C          68.0811   92.5869   15.8105 C.ar    1  UNL1        0.1195
     25 C          66.6140   92.7272   16.0898 C.ar    1  UNL1        0.1196
     26 N          65.6216   92.5908   14.9733 N.ar    1  UNL1       -0.2360
@<TRIPOS>BOND
     1    14    15    1
     2    15     7    1
     3     7     8   ar
     4     8     9   ar
     5     9    10    1
     6     9    11   ar
     7    11    12   ar
     8    12    13   ar
     9    13     1    1
    10     1     2   ar
    11     2     3   ar
    12     3     4   ar
    13     4     5   ar
    14     5    16    1
    15    16    17    1
    16    17    18   am
    17    18    19    2
    18    18    21    1
    19    21    22   ar
    20    22    23   ar
    21    23    24   ar
    22    24    25   ar
    23    25    26   ar
    24     5     6   ar
    25    13     7   ar
    26     6     1   ar
    27    26    21   ar
    28    17    20    1
@<TRIPOS>MOLECULE
*****
 26 28 0 0 0
SMALL
GASTEIGER

@<TRIPOS>ATOM
      1 C          61.7832   87.0139   10.2276 C.ar    1  UNL1        0.0218
      2 C          60.4269   87.0546    9.5883 C.ar    1  UNL1        0.0989
      3 N          59.8118   88.3714    9.2173 N.ar    1  UNL1       -0.2426
      4 C          60.5531   89.6476    9.4856 C.ar    1  UNL1        0.0962
      5 C          61.9094   89.6069   10.1250 C.ar    1  UNL1        0.0166
      6 C          62.5244   88.2900   10.4960 C.ar    1  UNL1        0.0006
      7 C          63.1181   84.8868    9.5617 C.ar    1  UNL1        0.1409
      8 C          63.7331   83.5699    9.9328 C.ar    1  UNL1        0.0665
      9 C          63.6282   83.0634   11.3407 C.ar    1  UNL1        0.1432
     10 F          64.2433   81.7465   11.7118 F       1  UNL1       -0.2041
     11 C          62.9084   83.8736   12.3777 C.ar    1  UNL1        0.0298
     12 C          62.2934   85.1904   12.0066 C.ar    1  UNL1        0.0054
     13 C          62.3982   85.6970   10.5987 C.ar    1  UNL1        0.0356
     14 C          62.2772   84.8909    7.1035 C.3     1  UNL1        0.2525
     15 O          63.2229   85.3933    8.1538 O.3     1  UNL1       -0.4714
     16 C          62.6506   90.8830   10.3933 C.3     1  UNL1        0.1182
     17 N          63.5027   91.0114   11.6211 N.am    1  UNL1       -0.2956
     18 C          64.6488   91.9790   11.6408 C.2     1  UNL1        0.2654
     19 O          64.9428   92.8182   10.4328 O.2     1  UNL1       -0.2684
     20 H          63.3097   90.4607   12.4140 H       1  UNL1        0.1501
     21 C          65.5008   92.1074   12.8686 C.ar    1  UNL1        0.1535
     22 C          66.9619   92.4206   12.7382 C.ar    1  UNL1        0.1226
     23 N          67.8140   92.5491   13.9660 N.ar    1  UNL1       -0.2390
     24 C          67.2049   92.3642   15.3243 C.ar    1  UNL1        0.1195
     25 C          65.7438   92.0510   15.4547 C.ar    1  UNL1        0.1196
     26 N          64.8917   91.9226   14.2268 N.ar    1  UNL1       -0.2360
@<TRIPOS>BOND
     1    14    15    1
     2    15     7    1
     3     7     8   ar
     4     8     9   ar
     5     9    10    1
     6     9    11   ar
     7    11    12   ar
     8    12    13   ar
     9    13     1    1
    10     1     2   ar
    11     2     3   ar
    12     3     4   ar
    13     4     5   ar
    14     5    16    1
    15    16    17    1
    16    17    18   am
    17    18    19    2
    18    18    21    1
    19    21    22   ar
    20    22    23   ar
    21    23    24   ar
    22    24    25   ar
    23    25    26   ar
    24     5     6   ar
    25    13     7   ar
    26     6     1   ar
    27    26    21   ar
    28    17    20    1
@<TRIPOS>MOLECULE
*****
 26 28 0 0 0
SMALL
GASTEIGER

@<TRIPOS>ATOM
      1 C          64.1501   90.0610   14.5159 C.ar    1  UNL1        0.0218
      2 C          63.5092   90.7247   15.6985 C.ar    1  UNL1        0.0989
      3 N          63.0313   89.8975   16.8550 N.ar    1  UNL1       -0.2426
      4 C          63.1943   88.4066   16.8288 C.ar    1  UNL1        0.0962
      5 C          63.8352   87.7429   15.6461 C.ar    1  UNL1        0.0166
      6 C          64.3131   88.5701   14.4896 C.ar    1  UNL1        0.0006
      7 C          65.9151   91.6513   13.4643 C.ar    1  UNL1        0.1409
      8 C          66.3930   92.4785   12.3079 C.ar    1  UNL1        0.0665
      9 C          65.5838   92.5425   11.0465 C.ar    1  UNL1        0.1432
     10 F          66.0618   93.3697    9.8900 F       1  UNL1       -0.2041
     11 C          64.2968   91.7794   10.9416 C.ar    1  UNL1        0.0298
     12 C          63.8189   90.9522   12.0980 C.ar    1  UNL1        0.0054
     13 C          64.6281   90.8882   13.3594 C.ar    1  UNL1        0.0356
     14 C          66.8041   92.7835   15.6272 C.3     1  UNL1        0.2525
     15 O          66.7243   91.5873   14.7257 O.3     1  UNL1       -0.4714
     16 C          63.9982   86.2520   15.6199 C.3     1  UNL1        0.1182
     17 N          63.8444   85.5034   14.3292 N.am    1  UNL1       -0.2956
     18 C          63.9486   84.0070   14.3130 C.2     1  UNL1        0.2654
     19 O          64.2067   83.2594   15.5876 O.2     1  UNL1       -0.2684
     20 H          63.6750   85.9941   13.4927 H       1  UNL1        0.1501
     21 C          63.7948   83.2584   13.0224 C.ar    1  UNL1        0.1535
     22 C          63.0104   81.9804   12.9855 C.ar    1  UNL1        0.1226
     23 N          62.8566   81.2317   11.6949 N.ar    1  UNL1       -0.2390
     24 C          63.4872   81.7611   10.4410 C.ar    1  UNL1        0.1195
     25 C          64.2716   83.0391   10.4778 C.ar    1  UNL1        0.1196
     26 N          64.4254   83.7878   11.7686 N.ar    1  UNL1       -0.2360
@<TRIPOS>BOND
     1    14    15    1
     2    15     7    1
     3     7     8   ar
     4     8     9   ar
     5     9    10    1
     6     9    11   ar
     7    11    12   ar
     8    12    13   ar
     9    13     1    1
    10     1     2   ar
    11     2     3   ar
    12     3     4   ar
    13     4     5   ar
    14     5    16    1
    15    16    17    1
    16    17    18   am
    17    18    19    2
    18    18    21    1
    19    21    22   ar
    20    22    23   ar
    21    23    24   ar
    22    24    25   ar
    23    25    26   ar
    24     5     6   ar
    25    13     7   ar
    26     6     1   ar
    27    26    21   ar
    28    17    20    1
@<TRIPOS>MOLECULE
*****
 26 28 0 0 0
SMALL
GASTEIGER

@<TRIPOS>ATOM
      1 C          61.9759   87.0856   11.0647 C.ar    1  UNL1        0.0218
      2 C          60.6535   87.3781   10.4199 C.ar    1  UNL1        0.0989
      3 N          60.1508   88.7894   10.3461 N.ar    1  UNL1       -0.2426
      4 C          60.9706   89.9083   10.9171 C.ar    1  UNL1        0.0962
      5 C          62.2930   89.6159   11.5619 C.ar    1  UNL1        0.0166
      6 C          62.7956   88.2045   11.6357 C.ar    1  UNL1        0.0006
      7 C          62.9529   84.9811    9.8957 C.ar    1  UNL1        0.1409
      8 C          63.4555   83.5697    9.9695 C.ar    1  UNL1        0.0665
      9 C          63.4836   82.8515   11.2861 C.ar    1  UNL1        0.1432
     10 F          63.9863   81.4401   11.3599 F       1  UNL1       -0.2041
     11 C          63.0093   83.5447   12.5289 C.ar    1  UNL1        0.0298
     12 C          62.5067   84.9560   12.4551 C.ar    1  UNL1        0.0054
     13 C          62.4785   85.6742   11.1385 C.ar    1  UNL1        0.0356
     14 C          62.6299   84.9425    7.3181 C.3     1  UNL1        0.2525
     15 O          62.9247   85.6993    8.5791 O.3     1  UNL1       -0.4714
     16 C          63.1127   90.7348   12.1329 C.3     1  UNL1        0.1182
     17 N          64.0433   91.5100   11.2481 N.am    1  UNL1       -0.2956
     18 C          65.1026   92.3819   11.8545 C.2     1  UNL1        0.2654
     19 O          65.2313   92.4784   13.3458 O.2     1  UNL1       -0.2684
     20 H          63.9588   91.4466   10.2692 H       1  UNL1        0.1501
     21 C          66.0332   93.1571   10.9696 C.ar    1  UNL1        0.1535
     22 C          67.3256   92.5430   10.5194 C.ar    1  UNL1        0.1226
     23 N          68.2561   93.3183    9.6346 N.ar    1  UNL1       -0.2390
     24 C          67.8943   94.7076    9.1998 C.ar    1  UNL1        0.1195
     25 C          66.6019   95.3216    9.6500 C.ar    1  UNL1        0.1196
     26 N          65.6713   94.5463   10.5349 N.ar    1  UNL1       -0.2360
@<TRIPOS>BOND
     1    14    15    1
     2    15     7    1
     3     7     8   ar
     4     8     9   ar
     5     9    10    1
     6     9    11   ar
     7    11    12   ar
     8    12    13   ar
     9    13     1    1
    10     1     2   ar
    11     2     3   ar
    12     3     4   ar
    13     4     5   ar
    14     5    16    1
    15    16    17    1
    16    17    18   am
    17    18    19    2
    18    18    21    1
    19    21    22   ar
    20    22    23   ar
    21    23    24   ar
    22    24    25   ar
    23    25    26   ar
    24     5     6   ar
    25    13     7   ar
    26     6     1   ar
    27    26    21   ar
    28    17    20    1
@<TRIPOS>MOLECULE
*****
 26 28 0 0 0
SMALL
GASTEIGER

@<TRIPOS>ATOM
      1 C          64.4930   90.1613   13.8992 C.ar    1  UNL1        0.0218
      2 C          65.7159   90.9968   14.1367 C.ar    1  UNL1        0.0989
      3 N          66.1167   92.0409   13.1372 N.ar    1  UNL1       -0.2426
      4 C          65.2945   92.2496   11.8999 C.ar    1  UNL1        0.0962
      5 C          64.0716   91.4141   11.6624 C.ar    1  UNL1        0.0166
      6 C          63.6709   90.3699   12.6620 C.ar    1  UNL1        0.0006
      7 C          63.4233   89.5220   16.1788 C.ar    1  UNL1        0.1409
      8 C          63.0226   88.4778   17.1784 C.ar    1  UNL1        0.0665
      9 C          63.2909   87.0289   16.8979 C.ar    1  UNL1        0.1432
     10 F          62.8901   85.9848   17.8976 F       1  UNL1       -0.2041
     11 C          63.9599   86.6241   15.6179 C.ar    1  UNL1        0.0298
     12 C          64.3606   87.6683   14.6184 C.ar    1  UNL1        0.0054
     13 C          64.0923   89.1172   14.8988 C.ar    1  UNL1        0.0356
     14 C          64.2741   91.8706   16.8928 C.3     1  UNL1        0.2525
     15 O          63.1550   90.9709   16.4593 O.3     1  UNL1       -0.4714
     16 C          63.2495   91.6226   10.4252 C.3     1  UNL1        0.1182
     17 N          62.6720   90.4430    9.7009 N.am    1  UNL1       -0.2956
     18 C          61.2955   89.9538   10.0418 C.2     1  UNL1        0.2654
     19 O          60.4967   90.6443   11.1072 O.2     1  UNL1       -0.2684
     20 H          63.1963   89.9898    9.0016 H       1  UNL1        0.1501
     21 C          60.7180   88.7741    9.3174 C.ar    1  UNL1        0.1535
     22 C          61.1229   87.3832    9.7066 C.ar    1  UNL1        0.1226
     23 N          60.5454   86.2036    8.9822 N.ar    1  UNL1       -0.2390
     24 C          59.5629   86.4147    7.8686 C.ar    1  UNL1        0.1195
     25 C          59.1580   87.8056    7.4794 C.ar    1  UNL1        0.1196
     26 N          59.7356   88.9853    8.2038 N.ar    1  UNL1       -0.2360
@<TRIPOS>BOND
     1    14    15    1
     2    15     7    1
     3     7     8   ar
     4     8     9   ar
     5     9    10    1
     6     9    11   ar
     7    11    12   ar
     8    12    13   ar
     9    13     1    1
    10     1     2   ar
    11     2     3   ar
    12     3     4   ar
    13     4     5   ar
    14     5    16    1
    15    16    17    1
    16    17    18   am
    17    18    19    2
    18    18    21    1
    19    21    22   ar
    20    22    23   ar
    21    23    24   ar
    22    24    25   ar
    23    25    26   ar
    24     5     6   ar
    25    13     7   ar
    26     6     1   ar
    27    26    21   ar
    28    17    20    1
@<TRIPOS>MOLECULE
*****
 26 28 0 0 0
SMALL
GASTEIGER

@<TRIPOS>ATOM
      1 C          64.1062   89.9557   14.4801 C.ar    1  UNL1        0.0218
      2 C          63.4001   90.5638   15.6555 C.ar    1  UNL1        0.0989
      3 N          62.9511   89.6945   16.7925 N.ar    1  UNL1       -0.2426
      4 C          63.2082   88.2172   16.7541 C.ar    1  UNL1        0.0962
      5 C          63.9144   87.6091   15.5786 C.ar    1  UNL1        0.0166
      6 C          64.3634   88.4785   14.4416 C.ar    1  UNL1        0.0006
      7 C          63.7713   90.8519   12.0645 C.ar    1  UNL1        0.1409
      8 C          64.2203   91.7212   10.9276 C.ar    1  UNL1        0.0665
      9 C          65.4533   92.5637   11.0692 C.ar    1  UNL1        0.1432
     10 F          65.9023   93.4330    9.9322 F       1  UNL1       -0.2041
     11 C          66.2372   92.5368   12.3477 C.ar    1  UNL1        0.0298
     12 C          65.7882   91.6675   13.4846 C.ar    1  UNL1        0.0054
     13 C          64.5552   90.8251   13.3430 C.ar    1  UNL1        0.0356
     14 C          62.1246   89.5067   10.5717 C.3     1  UNL1        0.2525
     15 O          62.5383   90.0095   11.9230 O.3     1  UNL1       -0.4714
     16 C          64.1715   86.1319   15.5401 C.3     1  UNL1        0.1182
     17 N          63.9873   85.3717   14.2602 N.am    1  UNL1       -0.2956
     18 C          63.9918   83.8717   14.2715 C.2     1  UNL1        0.2654
     19 O          64.1804   83.1320   15.5628 O.2     1  UNL1       -0.2684
     20 H          63.8636   85.8572   13.4128 H       1  UNL1        0.1501
     21 C          63.8076   83.1115   12.9917 C.ar    1  UNL1        0.1535
     22 C          63.0371   81.8245   12.9879 C.ar    1  UNL1        0.1226
     23 N          62.8530   81.0643   11.7080 N.ar    1  UNL1       -0.2390
     24 C          63.4394   81.5911   10.4318 C.ar    1  UNL1        0.1195
     25 C          64.2099   82.8781   10.4355 C.ar    1  UNL1        0.1196
     26 N          64.3940   83.6383   11.7155 N.ar    1  UNL1       -0.2360
@<TRIPOS>BOND
     1    14    15    1
     2    15     7    1
     3     7     8   ar
     4     8     9   ar
     5     9    10    1
     6     9    11   ar
     7    11    12   ar
     8    12    13   ar
     9    13     1    1
    10     1     2   ar
    11     2     3   ar
    12     3     4   ar
    13     4     5   ar
    14     5    16    1
    15    16    17    1
    16    17    18   am
    17    18    19    2
    18    18    21    1
    19    21    22   ar
    20    22    23   ar
    21    23    24   ar
    22    24    25   ar
    23    25    26   ar
    24     5     6   ar
    25    13     7   ar
    26     6     1   ar
    27    26    21   ar
    28    17    20    1
