@<TRIPOS>MOLECULE
*****
 34 39 0 0 0
SMALL
GASTEIGER

@<TRIPOS>ATOM
      1 O          61.2726   85.0343   10.4103 O.2     1  UNL1       -0.2526
      2 C          61.5319   86.5107   10.4680 C.2     1  UNL1        0.3039
      3 N          62.3642   87.0832   11.5768 N.am    1  UNL1       -0.2901
      4 N          60.9589   87.4144    9.4169 N.am    1  UNL1       -0.2642
      5 C          60.1266   86.8418    8.3081 C.3     1  UNL1        0.0954
      6 C          59.5536   87.7456    7.2569 C.3     1  UNL1        0.0309
      7 C          59.8129   89.2219    7.3146 C.3     1  UNL1        0.0827
      8 C          60.6452   89.7945    8.4234 C.3     1  UNL1        0.0309
      9 C          61.2182   88.8907    9.4745 C.3     1  UNL1        0.0954
     10 H          62.5344   88.0522   11.6146 H       1  UNL1        0.1509
     11 C          59.2399   90.1256    6.2635 C.ar    1  UNL1        0.2362
     12 N          60.0206   90.8801    5.2283 N.ar    1  UNL1       -0.1895
     13 C          59.0487   91.6543    4.3881 C.ar    1  UNL1        0.2210
     14 N          57.6675   91.3785    4.9039 N.ar    1  UNL1       -0.0544
     15 O          57.7856   90.4337    6.0629 O.2     1  UNL1       -0.3370
     16 C          59.3970   92.5476    3.2345 C.ar    1  UNL1        0.1202
     17 C          60.4865   93.5685    3.3788 C.ar    1  UNL1        0.0224
     18 C          60.8349   94.4618    2.2253 C.ar    1  UNL1        0.0031
     19 C          60.0937   94.3343    0.9274 C.ar    1  UNL1        0.0177
     20 C          60.4421   95.2276   -0.2261 C.ar    1  UNL1        0.0015
     21 C          59.7010   95.1000   -1.5240 C.ar    1  UNL1        0.0001
     22 C          58.6115   94.0791   -1.6683 C.ar    1  UNL1        0.0015
     23 C          58.2631   93.1858   -0.5148 C.ar    1  UNL1        0.0191
     24 C          59.0042   93.3134    0.7830 C.ar    1  UNL1        0.0814
     25 N          58.6559   92.4201    1.9366 N.ar    1  UNL1       -0.2422
     26 C          62.9373   86.1794   12.6280 C.3     1  UNL1        0.0774
     27 C          63.7644   85.9858   13.8642 C.3     1  UNL1        0.0259
     28 C          63.1027   84.8080   13.2123 C.3     1  UNL1        0.0420
     29 C          62.8162   83.3360   13.1734 C.ar    1  UNL1       -0.0208
     30 C          62.1317   82.6744   14.3324 C.ar    1  UNL1       -0.0042
     31 C          61.8452   81.2025   14.2935 C.ar    1  UNL1       -0.0003
     32 C          62.2433   80.3924   13.0955 C.ar    1  UNL1       -0.0000
     33 C          62.9279   81.0541   11.9365 C.ar    1  UNL1       -0.0003
     34 C          63.2144   82.5259   11.9754 C.ar    1  UNL1       -0.0042
@<TRIPOS>BOND
     1     1     2    2
     2     2     3   am
     3     3    26    1
     4    26    27    1
     5    27    28    1
     6    28    29    1
     7    29    30   ar
     8    30    31   ar
     9    31    32   ar
    10    32    33   ar
    11    33    34   ar
    12     2     4   am
    13     4     5    1
    14     5     6    1
    15     6     7    1
    16     7    11    1
    17    11    12   ar
    18    12    13   ar
    19    13    16    1
    20    16    17   ar
    21    17    18   ar
    22    18    19   ar
    23    19    20   ar
    24    20    21   ar
    25    21    22   ar
    26    22    23   ar
    27    23    24   ar
    28    24    25   ar
    29    13    14   ar
    30    14    15   ar
    31     7     8    1
    32     8     9    1
    33    28    26    1
    34    34    29   ar
    35     9     4    1
    36    15    11   ar
    37    25    16   ar
    38    24    19   ar
    39     3    10    1
@<TRIPOS>MOLECULE
*****
 34 39 0 0 0
SMALL
GASTEIGER

@<TRIPOS>ATOM
      1 O          64.3680   93.2425   10.7042 O.2     1  UNL1       -0.2526
      2 C          64.9487   92.7762   12.0062 C.2     1  UNL1        0.3039
      3 N          65.8417   93.6852   12.7976 N.am    1  UNL1       -0.2901
      4 N          64.6365   91.4008   12.5169 N.am    1  UNL1       -0.2642
      5 C          63.7435   90.4918   11.7255 C.3     1  UNL1        0.0954
      6 C          63.4313   89.1164   12.2362 C.3     1  UNL1        0.0309
      7 C          64.0120   88.6500   13.5382 C.3     1  UNL1        0.0827
      8 C          64.9050   89.5590   14.3296 C.3     1  UNL1        0.0309
      9 C          65.2172   90.9344   13.8189 C.3     1  UNL1        0.0954
     10 H          66.2228   93.3791   13.6522 H       1  UNL1        0.1509
     11 C          63.6998   87.2747   14.0489 C.ar    1  UNL1        0.2362
     12 N          63.5287   86.0413   13.2124 N.ar    1  UNL1       -0.1895
     13 C          63.2269   84.8955   14.1323 C.ar    1  UNL1        0.2210
     14 N          63.2116   85.4207   15.5373 N.ar    1  UNL1       -0.0544
     15 O          63.5038   86.8910   15.4858 O.2     1  UNL1       -0.3370
     16 C          62.9834   83.4741   13.7196 C.ar    1  UNL1        0.1202
     17 C          62.4555   82.4840   14.7151 C.ar    1  UNL1        0.0224
     18 C          62.2119   81.0627   14.3025 C.ar    1  UNL1        0.0031
     19 C          62.4962   80.6313   12.8942 C.ar    1  UNL1        0.0177
     20 C          62.2526   79.2099   12.4816 C.ar    1  UNL1        0.0015
     21 C          62.5369   78.7786   11.0733 C.ar    1  UNL1        0.0001
     22 C          63.0648   79.7687   10.0778 C.ar    1  UNL1        0.0015
     23 C          63.3084   81.1900   10.4904 C.ar    1  UNL1        0.0191
     24 C          63.0241   81.6214   11.8987 C.ar    1  UNL1        0.0814
     25 N          63.2677   83.0428   12.3114 N.ar    1  UNL1       -0.2422
     26 C          66.1540   95.0607   12.2869 C.3     1  UNL1        0.0774
     27 C          66.5368   96.4872   12.5479 C.3     1  UNL1        0.0259
     28 C          66.3120   96.0162   11.1416 C.3     1  UNL1        0.0420
     29 C          66.2734   96.2961    9.6684 C.ar    1  UNL1       -0.0208
     30 C          67.5516   96.3901    8.8892 C.ar    1  UNL1       -0.0042
     31 C          67.5130   96.6699    7.4160 C.ar    1  UNL1       -0.0003
     32 C          66.1962   96.8557    6.7222 C.ar    1  UNL1       -0.0000
     33 C          64.9180   96.7617    7.5014 C.ar    1  UNL1       -0.0003
     34 C          64.9566   96.4819    8.9745 C.ar    1  UNL1       -0.0042
@<TRIPOS>BOND
     1     1     2    2
     2     2     3   am
     3     3    26    1
     4    26    27    1
     5    27    28    1
     6    28    29    1
     7    29    30   ar
     8    30    31   ar
     9    31    32   ar
    10    32    33   ar
    11    33    34   ar
    12     2     4   am
    13     4     5    1
    14     5     6    1
    15     6     7    1
    16     7    11    1
    17    11    12   ar
    18    12    13   ar
    19    13    16    1
    20    16    17   ar
    21    17    18   ar
    22    18    19   ar
    23    19    20   ar
    24    20    21   ar
    25    21    22   ar
    26    22    23   ar
    27    23    24   ar
    28    24    25   ar
    29    13    14   ar
    30    14    15   ar
    31     7     8    1
    32     8     9    1
    33    28    26    1
    34    34    29   ar
    35     9     4    1
    36    15    11   ar
    37    25    16   ar
    38    24    19   ar
    39     3    10    1
@<TRIPOS>MOLECULE
*****
 34 39 0 0 0
SMALL
GASTEIGER

@<TRIPOS>ATOM
      1 O          61.8474   87.3226   11.7046 O.2     1  UNL1       -0.2526
      2 C          61.4702   86.7460   10.3722 C.2     1  UNL1        0.3039
      3 N          61.6557   85.2809   10.1094 N.am    1  UNL1       -0.2901
      4 N          60.9075   87.6345    9.3027 N.am    1  UNL1       -0.2642
      5 C          60.7220   89.0996    9.5655 C.3     1  UNL1        0.0954
      6 C          60.1593   89.9880    8.4960 C.3     1  UNL1        0.0309
      7 C          59.7821   89.4114    7.1636 C.3     1  UNL1        0.0827
      8 C          59.9676   87.9463    6.9007 C.3     1  UNL1        0.0309
      9 C          60.5303   87.0578    7.9703 C.3     1  UNL1        0.0954
     10 H          61.4081   84.9025    9.2349 H       1  UNL1        0.1509
     11 C          59.2195   90.2999    6.0940 C.ar    1  UNL1        0.2362
     12 N          60.0104   91.0413    5.0572 N.ar    1  UNL1       -0.1895
     13 C          59.0467   91.8026    4.1959 C.ar    1  UNL1        0.2210
     14 N          57.6603   91.5316    4.7002 N.ar    1  UNL1       -0.0544
     15 O          57.7670   90.6029    5.8733 O.2     1  UNL1       -0.3370
     16 C          59.4065   92.6806    3.0341 C.ar    1  UNL1        0.1202
     17 C          60.1601   93.9570    3.2638 C.ar    1  UNL1        0.0224
     18 C          60.5199   94.8351    2.1021 C.ar    1  UNL1        0.0031
     19 C          60.1260   94.4367    0.7106 C.ar    1  UNL1        0.0177
     20 C          60.4857   95.3147   -0.4511 C.ar    1  UNL1        0.0015
     21 C          60.0919   94.9163   -1.8425 C.ar    1  UNL1        0.0001
     22 C          59.3382   93.6399   -2.0722 C.ar    1  UNL1        0.0015
     23 C          58.9785   92.7619   -0.9105 C.ar    1  UNL1        0.0191
     24 C          59.3724   93.1603    0.4809 C.ar    1  UNL1        0.0814
     25 N          59.0126   92.2822    1.6427 N.ar    1  UNL1       -0.2422
     26 C          62.2184   84.3924   11.1790 C.3     1  UNL1        0.0774
     27 C          62.6981   83.0441   11.6283 C.3     1  UNL1        0.0259
     28 C          62.7132   84.2017   12.5821 C.3     1  UNL1        0.0420
     29 C          63.0076   84.7600   13.9429 C.ar    1  UNL1       -0.0208
     30 C          62.1751   84.3454   15.1197 C.ar    1  UNL1       -0.0042
     31 C          62.4695   84.9036   16.4805 C.ar    1  UNL1       -0.0003
     32 C          63.5964   85.8764   16.6644 C.ar    1  UNL1       -0.0000
     33 C          64.4289   86.2909   15.4875 C.ar    1  UNL1       -0.0003
     34 C          64.1345   85.7327   14.1268 C.ar    1  UNL1       -0.0042
@<TRIPOS>BOND
     1     1     2    2
     2     2     3   am
     3     3    26    1
     4    26    27    1
     5    27    28    1
     6    28    29    1
     7    29    30   ar
     8    30    31   ar
     9    31    32   ar
    10    32    33   ar
    11    33    34   ar
    12     2     4   am
    13     4     5    1
    14     5     6    1
    15     6     7    1
    16     7    11    1
    17    11    12   ar
    18    12    13   ar
    19    13    16    1
    20    16    17   ar
    21    17    18   ar
    22    18    19   ar
    23    19    20   ar
    24    20    21   ar
    25    21    22   ar
    26    22    23   ar
    27    23    24   ar
    28    24    25   ar
    29    13    14   ar
    30    14    15   ar
    31     7     8    1
    32     8     9    1
    33    28    26    1
    34    34    29   ar
    35     9     4    1
    36    15    11   ar
    37    25    16   ar
    38    24    19   ar
    39     3    10    1
@<TRIPOS>MOLECULE
*****
 34 39 0 0 0
SMALL
GASTEIGER

@<TRIPOS>ATOM
      1 O          62.4391   88.0148   12.1750 O.2     1  UNL1       -0.2526
      2 C          61.8346   87.2687   11.0226 C.2     1  UNL1        0.3039
      3 N          61.7877   85.7696   11.0415 N.am    1  UNL1       -0.2901
      4 N          61.2769   88.0218    9.8514 N.am    1  UNL1       -0.2642
      5 C          61.3238   89.5210    9.8325 C.3     1  UNL1        0.0954
      6 C          60.7661   90.2741    8.6613 C.3     1  UNL1        0.0309
      7 C          60.1616   89.5280    7.5089 C.3     1  UNL1        0.0827
      8 C          60.1148   88.0289    7.5277 C.3     1  UNL1        0.0309
      9 C          60.6724   87.2758    8.6990 C.3     1  UNL1        0.0954
     10 H          61.3910   85.2800   10.2851 H       1  UNL1        0.1509
     11 C          59.6040   90.2811    6.3376 C.ar    1  UNL1        0.2362
     12 N          60.4025   90.9452    5.2552 N.ar    1  UNL1       -0.1895
     13 C          59.4418   91.5769    4.2918 C.ar    1  UNL1        0.2210
     14 N          58.0497   91.3033    4.7787 N.ar    1  UNL1       -0.0544
     15 O          58.1499   90.5025    6.0431 O.2     1  UNL1       -0.3370
     16 C          59.8090   92.3470    3.0580 C.ar    1  UNL1        0.1202
     17 C          58.7620   92.6614    2.0308 C.ar    1  UNL1        0.0224
     18 C          59.1291   93.4314    0.7971 C.ar    1  UNL1        0.0031
     19 C          60.5432   93.8872    0.5904 C.ar    1  UNL1        0.0177
     20 C          60.9103   94.6573   -0.6433 C.ar    1  UNL1        0.0015
     21 C          62.3244   95.1129   -0.8499 C.ar    1  UNL1        0.0001
     22 C          63.3714   94.7986    0.1772 C.ar    1  UNL1        0.0015
     23 C          63.0043   94.0285    1.4110 C.ar    1  UNL1        0.0191
     24 C          61.5902   93.5728    1.6176 C.ar    1  UNL1        0.0814
     25 N          61.2231   92.8027    2.8514 N.ar    1  UNL1       -0.2422
     26 C          62.3454   85.0164   12.2127 C.3     1  UNL1        0.0774
     27 C          63.0722   85.0080   13.5248 C.3     1  UNL1        0.0259
     28 C          62.5845   83.7206   12.9293 C.3     1  UNL1        0.0420
     29 C          62.4409   82.2290   12.9992 C.ar    1  UNL1       -0.0208
     30 C          62.9802   81.3711   11.8933 C.ar    1  UNL1       -0.0042
     31 C          62.8366   79.8796   11.9631 C.ar    1  UNL1       -0.0003
     32 C          62.1538   79.2461   13.1389 C.ar    1  UNL1       -0.0000
     33 C          61.6145   80.1042   14.2448 C.ar    1  UNL1       -0.0003
     34 C          61.7581   81.5956   14.1749 C.ar    1  UNL1       -0.0042
@<TRIPOS>BOND
     1     1     2    2
     2     2     3   am
     3     3    26    1
     4    26    27    1
     5    27    28    1
     6    28    29    1
     7    29    30   ar
     8    30    31   ar
     9    31    32   ar
    10    32    33   ar
    11    33    34   ar
    12     2     4   am
    13     4     5    1
    14     5     6    1
    15     6     7    1
    16     7    11    1
    17    11    12   ar
    18    12    13   ar
    19    13    16    1
    20    16    17   ar
    21    17    18   ar
    22    18    19   ar
    23    19    20   ar
    24    20    21   ar
    25    21    22   ar
    26    22    23   ar
    27    23    24   ar
    28    24    25   ar
    29    13    14   ar
    30    14    15   ar
    31     7     8    1
    32     8     9    1
    33    28    26    1
    34    34    29   ar
    35     9     4    1
    36    15    11   ar
    37    25    16   ar
    38    24    19   ar
    39     3    10    1
