@<TRIPOS>MOLECULE
*****
 31 34 0 0 0
SMALL
GASTEIGER

@<TRIPOS>ATOM
      1 C          63.2663   85.5773   12.6412 C.ar    1  UNL1        0.0512
      2 C          64.0153   86.2397   13.7594 C.ar    1  UNL1        0.0823
      3 C          64.7520   85.5403   14.8631 C.3     1  UNL1        0.0540
      4 N          63.8982   87.7243   13.5801 N.ar    1  UNL1       -0.1670
      5 N          63.0768   87.9794   12.3511 N.ar    1  UNL1       -0.1991
      6 C          62.6340   89.2486   11.6854 C.ar    1  UNL1        0.1328
      7 C          61.8007   89.1908   10.4395 C.ar    1  UNL1        0.0489
      8 C          61.4102   87.8638    9.8593 C.ar    1  UNL1        0.0638
      9 C          60.5769   87.8060    8.6133 C.3     1  UNL1        0.0522
     10 N          61.8530   86.5947   10.5250 N.ar    1  UNL1       -0.2307
     11 C          62.6863   86.6524   11.7709 C.ar    1  UNL1        0.1658
     12 C          62.8350   81.1428   12.0089 C.ar    1  UNL1        0.1724
     13 C          63.5029   81.9878   10.9650 C.ar    1  UNL1        0.0400
     14 C          63.6467   83.4659   11.1758 C.ar    1  UNL1        0.0035
     15 C          63.1225   84.0991   12.4305 C.ar    1  UNL1        0.0074
     16 C          62.4546   83.2541   13.4744 C.ar    1  UNL1        0.0402
     17 C          62.3109   81.7760   13.2636 C.ar    1  UNL1        0.1724
     18 C          62.8055   79.0893   10.4176 C.3     1  UNL1        0.2526
     19 O          62.6912   79.6646   11.7982 O.3     1  UNL1       -0.4684
     20 O          61.6429   80.9310   14.3076 O.3     1  UNL1       -0.4684
     21 C          60.1979   80.5574   14.1583 C.3     1  UNL1        0.2526
     22 N          63.0246   90.5756   12.2656 N.pl3   1  UNL1       -0.3168
     23 H          62.7219   90.8264   13.1682 H       1  UNL1        0.1482
     24 C          63.8763   91.5203   11.4706 C.3     1  UNL1        0.1057
     25 C          65.0140   92.2411   12.1309 C.3     1  UNL1        0.0937
     26 N          65.9625   93.0600   11.3065 N.3     1  UNL1       -0.2670
     27 C          66.9590   92.3813   10.4141 C.3     1  UNL1        0.1047
     28 C          67.9075   93.2002    9.5897 C.3     1  UNL1        0.1595
     29 O          67.8594   94.6979    9.6576 O.3     1  UNL1       -0.3508
     30 C          66.8630   95.3767   10.5500 C.3     1  UNL1        0.1595
     31 C          65.9145   94.5577   11.3744 C.3     1  UNL1        0.1047
@<TRIPOS>BOND
     1    18    19    1
     2    19    12    1
     3    12    13   ar
     4    13    14   ar
     5    14    15   ar
     6    15     1    1
     7     1     2   ar
     8     2     3    1
     9     2     4   ar
    10     4     5   ar
    11     5     6   ar
    12     6    22    1
    13    22    24    1
    14    24    25    1
    15    25    26    1
    16    26    27    1
    17    27    28    1
    18    28    29    1
    19    29    30    1
    20    30    31    1
    21     6     7   ar
    22     7     8   ar
    23     8     9    1
    24     8    10   ar
    25    10    11   ar
    26    15    16   ar
    27    16    17   ar
    28    17    20    1
    29    20    21    1
    30    17    12   ar
    31    11     1   ar
    32    11     5   ar
    33    31    26    1
    34    22    23    1
@<TRIPOS>MOLECULE
*****
 31 34 0 0 0
SMALL
GASTEIGER

@<TRIPOS>ATOM
      1 C          62.8597   85.4393   11.9769 C.ar    1  UNL1        0.0512
      2 C          63.5556   86.2004   13.0661 C.ar    1  UNL1        0.0823
      3 C          64.4387   85.6127   14.1268 C.3     1  UNL1        0.0540
      4 N          63.2135   87.6523   12.9085 N.ar    1  UNL1       -0.1670
      5 N          62.3061   87.7885   11.7218 N.ar    1  UNL1       -0.1991
      6 C          61.6507   88.9813   11.0912 C.ar    1  UNL1        0.1328
      7 C          60.7767   88.8064    9.8848 C.ar    1  UNL1        0.0489
      8 C          60.5580   87.4387    9.3090 C.ar    1  UNL1        0.0638
      9 C          59.6840   87.2637    8.1026 C.3     1  UNL1        0.0522
     10 N          61.2134   86.2459    9.9397 N.ar    1  UNL1       -0.2307
     11 C          62.0874   86.4208   11.1461 C.ar    1  UNL1        0.1658
     12 C          63.0543   80.9921   11.3174 C.ar    1  UNL1        0.1724
     13 C          63.6083   81.9284   10.2847 C.ar    1  UNL1        0.0400
     14 C          63.5434   83.4108   10.5046 C.ar    1  UNL1        0.0035
     15 C          62.9246   83.9569   11.7570 C.ar    1  UNL1        0.0074
     16 C          62.3706   83.0206   12.7897 C.ar    1  UNL1        0.0402
     17 C          62.4355   81.5382   12.5699 C.ar    1  UNL1        0.1724
     18 C          62.8112   78.9378    9.7455 C.3     1  UNL1        0.2526
     19 O          63.1192   79.5097   11.0976 O.3     1  UNL1       -0.4684
     20 O          61.8815   80.6019   13.6025 O.3     1  UNL1       -0.4684
     21 C          60.5055   80.8253   14.1564 C.3     1  UNL1        0.2526
     22 N          61.8694   90.3490   11.6670 N.pl3   1  UNL1       -0.3168
     23 H          61.0978   90.9189   11.8888 H       1  UNL1        0.1482
     24 C          63.2637   90.8485   11.9048 C.3     1  UNL1        0.1057
     25 C          63.7772   91.0003   13.3060 C.3     1  UNL1        0.0937
     26 N          65.0349   91.7759   13.5639 N.3     1  UNL1       -0.2670
     27 C          65.5038   92.7966   12.5697 C.3     1  UNL1        0.1047
     28 C          66.7616   93.5722   12.8277 C.3     1  UNL1        0.1595
     29 O          67.5503   93.3271   14.0799 O.3     1  UNL1       -0.3508
     30 C          67.0813   92.3065   15.0740 C.3     1  UNL1        0.1595
     31 C          65.8236   91.5309   14.8161 C.3     1  UNL1        0.1047
@<TRIPOS>BOND
     1    18    19    1
     2    19    12    1
     3    12    13   ar
     4    13    14   ar
     5    14    15   ar
     6    15     1    1
     7     1     2   ar
     8     2     3    1
     9     2     4   ar
    10     4     5   ar
    11     5     6   ar
    12     6    22    1
    13    22    24    1
    14    24    25    1
    15    25    26    1
    16    26    27    1
    17    27    28    1
    18    28    29    1
    19    29    30    1
    20    30    31    1
    21     6     7   ar
    22     7     8   ar
    23     8     9    1
    24     8    10   ar
    25    10    11   ar
    26    15    16   ar
    27    16    17   ar
    28    17    20    1
    29    20    21    1
    30    17    12   ar
    31    11     1   ar
    32    11     5   ar
    33    31    26    1
    34    22    23    1
@<TRIPOS>MOLECULE
*****
 31 34 0 0 0
SMALL
GASTEIGER

@<TRIPOS>ATOM
      1 C          63.1477   86.4897   12.8568 C.ar    1  UNL1        0.0512
      2 C          63.8339   87.5688   13.6409 C.ar    1  UNL1        0.0823
      3 C          64.6225   87.3764   14.9024 C.3     1  UNL1        0.0540
      4 N          63.5929   88.8741   12.9422 N.ar    1  UNL1       -0.1670
      5 N          62.7579   88.6016   11.7262 N.ar    1  UNL1       -0.1991
      6 C          62.2125   89.5050   10.6601 C.ar    1  UNL1        0.1328
      7 C          61.3920   88.9348    9.5414 C.ar    1  UNL1        0.0489
      8 C          61.1169   87.4612    9.4887 C.ar    1  UNL1        0.0638
      9 C          60.2964   86.8909    8.3699 C.3     1  UNL1        0.0522
     10 N          61.6623   86.5578   10.5547 N.ar    1  UNL1       -0.2307
     11 C          62.4828   87.1280   11.6735 C.ar    1  UNL1        0.1658
     12 C          63.0938   82.1069   13.8757 C.ar    1  UNL1        0.1724
     13 C          62.5658   83.1115   14.8566 C.ar    1  UNL1        0.0400
     14 C          62.5838   84.5724   14.5169 C.ar    1  UNL1        0.0035
     15 C          63.1298   85.0288   13.1965 C.ar    1  UNL1        0.0074
     16 C          63.6577   84.0242   12.2156 C.ar    1  UNL1        0.0402
     17 C          63.6397   82.5633   12.5553 C.ar    1  UNL1        0.1724
     18 C          62.0751   79.7371   13.5653 C.3     1  UNL1        0.2526
     19 O          63.0758   80.6459   14.2153 O.3     1  UNL1       -0.4684
     20 O          64.1677   81.5587   11.5744 O.3     1  UNL1       -0.4684
     21 C          63.3443   81.1698   10.3825 C.3     1  UNL1        0.2526
     22 N          62.4877   90.9786   10.7129 N.pl3   1  UNL1       -0.3168
     23 H          61.8075   91.5939   11.0707 H       1  UNL1        0.1482
     24 C          63.7992   91.5148   10.2205 C.3     1  UNL1        0.1057
     25 C          64.7552   92.1571   11.1815 C.3     1  UNL1        0.0937
     26 N          65.8818   93.0027   10.6661 N.3     1  UNL1       -0.2670
     27 C          67.0962   92.3530   10.0719 C.3     1  UNL1        0.1047
     28 C          68.2229   93.1987    9.5565 C.3     1  UNL1        0.1595
     29 O          68.1350   94.6941    9.6355 O.3     1  UNL1       -0.3508
     30 C          66.9206   95.3438   10.2298 C.3     1  UNL1        0.1595
     31 C          65.7940   94.4981   10.7451 C.3     1  UNL1        0.1047
@<TRIPOS>BOND
     1    18    19    1
     2    19    12    1
     3    12    13   ar
     4    13    14   ar
     5    14    15   ar
     6    15     1    1
     7     1     2   ar
     8     2     3    1
     9     2     4   ar
    10     4     5   ar
    11     5     6   ar
    12     6    22    1
    13    22    24    1
    14    24    25    1
    15    25    26    1
    16    26    27    1
    17    27    28    1
    18    28    29    1
    19    29    30    1
    20    30    31    1
    21     6     7   ar
    22     7     8   ar
    23     8     9    1
    24     8    10   ar
    25    10    11   ar
    26    15    16   ar
    27    16    17   ar
    28    17    20    1
    29    20    21    1
    30    17    12   ar
    31    11     1   ar
    32    11     5   ar
    33    31    26    1
    34    22    23    1
@<TRIPOS>MOLECULE
*****
 31 34 0 0 0
SMALL
GASTEIGER

@<TRIPOS>ATOM
      1 C          62.7686   89.0613   11.0493 C.ar    1  UNL1        0.0512
      2 C          62.9501   90.5400   10.8746 C.ar    1  UNL1        0.0823
      3 C          62.5154   91.3474    9.6874 C.3     1  UNL1        0.0540
      4 N          63.6424   91.0695   12.0953 N.ar    1  UNL1       -0.1670
      5 N          63.8889   89.9180   13.0245 N.ar    1  UNL1       -0.1991
      6 C          64.5353   89.8393   14.3758 C.ar    1  UNL1        0.1328
      7 C          64.6417   88.5195   15.0806 C.ar    1  UNL1        0.0489
      8 C          64.1017   87.2784   14.4341 C.ar    1  UNL1        0.0638
      9 C          64.2081   85.9585   15.1389 C.3     1  UNL1        0.0522
     10 N          63.4553   87.3571   13.0828 N.ar    1  UNL1       -0.2307
     11 C          63.3489   88.6769   12.3780 C.ar    1  UNL1        0.1658
     12 C          60.8249   86.2685    8.1043 C.ar    1  UNL1        0.1724
     13 C          62.0291   85.8219    8.8792 C.ar    1  UNL1        0.0400
     14 C          62.6770   86.7528    9.8608 C.ar    1  UNL1        0.0035
     15 C          62.1207   88.1304   10.0677 C.ar    1  UNL1        0.0074
     16 C          60.9165   88.5770    9.2928 C.ar    1  UNL1        0.0402
     17 C          60.2686   87.6461    8.3112 C.ar    1  UNL1        0.1724
     18 C          61.0217   84.4210    6.2884 C.3     1  UNL1        0.2526
     19 O          60.1770   85.3376    7.1227 O.3     1  UNL1       -0.4684
     20 O          59.0644   88.0928    7.5364 O.3     1  UNL1       -0.4684
     21 C          59.1386   89.3195    6.6763 C.3     1  UNL1        0.2526
     22 N          65.0754   91.0805   15.0222 N.pl3   1  UNL1       -0.3168
     23 H          64.6096   91.4760   15.7942 H       1  UNL1        0.1482
     24 C          66.3250   91.7190   14.4926 C.3     1  UNL1        0.1057
     25 C          66.2882   93.1286   13.9809 C.3     1  UNL1        0.0937
     26 N          66.5634   93.4083   12.5331 N.3     1  UNL1       -0.2670
     27 C          66.2906   94.7706   11.9674 C.3     1  UNL1        0.1047
     28 C          66.5658   95.0504   10.5197 C.3     1  UNL1        0.1595
     29 O          67.1138   93.9679    9.6376 O.3     1  UNL1       -0.3508
     30 C          67.3865   92.6057   10.2033 C.3     1  UNL1        0.1595
     31 C          67.1113   92.3259   11.6510 C.3     1  UNL1        0.1047
@<TRIPOS>BOND
     1    18    19    1
     2    19    12    1
     3    12    13   ar
     4    13    14   ar
     5    14    15   ar
     6    15     1    1
     7     1     2   ar
     8     2     3    1
     9     2     4   ar
    10     4     5   ar
    11     5     6   ar
    12     6    22    1
    13    22    24    1
    14    24    25    1
    15    25    26    1
    16    26    27    1
    17    27    28    1
    18    28    29    1
    19    29    30    1
    20    30    31    1
    21     6     7   ar
    22     7     8   ar
    23     8     9    1
    24     8    10   ar
    25    10    11   ar
    26    15    16   ar
    27    16    17   ar
    28    17    20    1
    29    20    21    1
    30    17    12   ar
    31    11     1   ar
    32    11     5   ar
    33    31    26    1
    34    22    23    1
@<TRIPOS>MOLECULE
*****
 31 34 0 0 0
SMALL
GASTEIGER

@<TRIPOS>ATOM
      1 C          63.1242   90.0316   12.2540 C.ar    1  UNL1        0.0512
      2 C          63.7728   91.3030   11.7924 C.ar    1  UNL1        0.0823
      3 C          63.8367   91.7969   10.3774 C.3     1  UNL1        0.0540
      4 N          64.3461   91.9937   12.9941 N.ar    1  UNL1       -0.1670
      5 N          64.0519   91.1492   14.1984 N.ar    1  UNL1       -0.1991
      6 C          64.3741   91.3278   15.6525 C.ar    1  UNL1        0.1328
      7 C          63.9411   90.2938   16.6491 C.ar    1  UNL1        0.0489
      8 C          63.1859   89.0812   16.1917 C.ar    1  UNL1        0.0638
      9 C          62.7529   88.0471   17.1883 C.3     1  UNL1        0.0522
     10 N          62.8637   88.9026   14.7376 N.ar    1  UNL1       -0.2307
     11 C          63.2967   89.9366   13.7410 C.ar    1  UNL1        0.1658
     12 C          61.0287   87.0296    9.6372 C.ar    1  UNL1        0.1724
     13 C          60.7576   88.4947    9.4635 C.ar    1  UNL1        0.0400
     14 C          61.4561   89.4953   10.3357 C.ar    1  UNL1        0.0035
     15 C          62.4257   89.0310   11.3817 C.ar    1  UNL1        0.0074
     16 C          62.6968   87.5660   11.5555 C.ar    1  UNL1        0.0402
     17 C          61.9984   86.5653   10.6833 C.ar    1  UNL1        0.1724
     18 C          59.3706   86.4941    7.7101 C.3     1  UNL1        0.2526
     19 O          60.3303   86.0290    8.7650 O.3     1  UNL1       -0.4684
     20 O          62.2695   85.1003   10.8570 O.3     1  UNL1       -0.4684
     21 C          62.6830   84.5679   12.1970 C.3     1  UNL1        0.2526
     22 N          65.1293   92.5404   16.1099 N.pl3   1  UNL1       -0.3168
     23 H          64.6409   93.3305   16.4361 H       1  UNL1        0.1482
     24 C          66.6288   92.5492   16.0703 C.3     1  UNL1        0.1057
     25 C          67.3498   93.5153   15.1778 C.3     1  UNL1        0.0937
     26 N          67.2450   93.3813   13.6875 N.3     1  UNL1       -0.2670
     27 C          67.8286   92.1830   12.9994 C.3     1  UNL1        0.1047
     28 C          67.7238   92.0489   11.5091 C.3     1  UNL1        0.1595
     29 O          67.0353   93.1132   10.7069 O.3     1  UNL1       -0.3508
     30 C          66.4518   94.3115   11.3950 C.3     1  UNL1        0.1595
     31 C          66.5566   94.4455   12.8854 C.3     1  UNL1        0.1047
@<TRIPOS>BOND
     1    18    19    1
     2    19    12    1
     3    12    13   ar
     4    13    14   ar
     5    14    15   ar
     6    15     1    1
     7     1     2   ar
     8     2     3    1
     9     2     4   ar
    10     4     5   ar
    11     5     6   ar
    12     6    22    1
    13    22    24    1
    14    24    25    1
    15    25    26    1
    16    26    27    1
    17    27    28    1
    18    28    29    1
    19    29    30    1
    20    30    31    1
    21     6     7   ar
    22     7     8   ar
    23     8     9    1
    24     8    10   ar
    25    10    11   ar
    26    15    16   ar
    27    16    17   ar
    28    17    20    1
    29    20    21    1
    30    17    12   ar
    31    11     1   ar
    32    11     5   ar
    33    31    26    1
    34    22    23    1
@<TRIPOS>MOLECULE
*****
 31 34 0 0 0
SMALL
GASTEIGER

@<TRIPOS>ATOM
      1 C          62.6652   86.2275   11.1189 C.ar    1  UNL1        0.0512
      2 C          62.1456   86.6535    9.7777 C.ar    1  UNL1        0.0823
      3 C          61.6816   85.7409    8.6814 C.3     1  UNL1        0.0540
      4 N          62.1716   88.1524    9.7254 N.ar    1  UNL1       -0.1670
      5 N          62.7073   88.6526   11.0342 N.ar    1  UNL1       -0.1991
      6 C          62.9567   90.0378   11.5531 C.ar    1  UNL1        0.1328
      7 C          63.5110   90.2333   12.9330 C.ar    1  UNL1        0.0489
      8 C          63.8160   89.0436   13.7942 C.ar    1  UNL1        0.0638
      9 C          64.3705   89.2390   15.1743 C.3     1  UNL1        0.0522
     10 N          63.5667   87.6585   13.2754 N.ar    1  UNL1       -0.2307
     11 C          63.0123   87.4630   11.8954 C.ar    1  UNL1        0.1658
     12 C          63.1052   81.9871   12.5598 C.ar    1  UNL1        0.1724
     13 C          63.3033   82.3105   11.1085 C.ar    1  UNL1        0.0400
     14 C          63.1566   83.7239   10.6282 C.ar    1  UNL1        0.0035
     15 C          62.8119   84.8140   11.5991 C.ar    1  UNL1        0.0074
     16 C          62.6138   84.4907   13.0504 C.ar    1  UNL1        0.0402
     17 C          62.7604   83.0772   13.5307 C.ar    1  UNL1        0.1724
     18 C          62.0385   79.7876   13.4396 C.3     1  UNL1        0.2526
     19 O          63.2519   80.5737   13.0400 O.3     1  UNL1       -0.4684
     20 O          62.5624   82.7539   14.9820 O.3     1  UNL1       -0.4684
     21 C          62.5322   83.8563   15.9987 C.3     1  UNL1        0.2526
     22 N          62.6516   91.2275   10.6918 N.pl3   1  UNL1       -0.3168
     23 H          61.7172   91.4614   10.4885 H       1  UNL1        0.1482
     24 C          63.7704   92.0608   10.1404 C.3     1  UNL1        0.1057
     25 C          64.9280   92.4367   11.0170 C.3     1  UNL1        0.0937
     26 N          66.0872   93.1967   10.4437 N.3     1  UNL1       -0.2670
     27 C          67.3064   92.4614    9.9716 C.3     1  UNL1        0.1047
     28 C          68.4655   93.2214    9.3983 C.3     1  UNL1        0.1595
     29 O          68.4054   94.7169    9.2970 O.3     1  UNL1       -0.3508
     30 C          67.1862   95.4521    9.7690 C.3     1  UNL1        0.1595
     31 C          66.0271   94.6921   10.3424 C.3     1  UNL1        0.1047
@<TRIPOS>BOND
     1    18    19    1
     2    19    12    1
     3    12    13   ar
     4    13    14   ar
     5    14    15   ar
     6    15     1    1
     7     1     2   ar
     8     2     3    1
     9     2     4   ar
    10     4     5   ar
    11     5     6   ar
    12     6    22    1
    13    22    24    1
    14    24    25    1
    15    25    26    1
    16    26    27    1
    17    27    28    1
    18    28    29    1
    19    29    30    1
    20    30    31    1
    21     6     7   ar
    22     7     8   ar
    23     8     9    1
    24     8    10   ar
    25    10    11   ar
    26    15    16   ar
    27    16    17   ar
    28    17    20    1
    29    20    21    1
    30    17    12   ar
    31    11     1   ar
    32    11     5   ar
    33    31    26    1
    34    22    23    1
@<TRIPOS>MOLECULE
*****
 31 34 0 0 0
SMALL
GASTEIGER

@<TRIPOS>ATOM
      1 C          63.1379   86.2888   13.0492 C.ar    1  UNL1        0.0512
      2 C          64.0078   87.1475   13.9186 C.ar    1  UNL1        0.0823
      3 C          64.7591   86.6947   15.1354 C.3     1  UNL1        0.0540
      4 N          63.9946   88.5386   13.3574 N.ar    1  UNL1       -0.1670
      5 N          63.1165   88.5394   12.1413 N.ar    1  UNL1       -0.1991
      6 C          62.7307   89.6268   11.1827 C.ar    1  UNL1        0.1328
      7 C          61.8154   89.3237   10.0337 C.ar    1  UNL1        0.0489
      8 C          61.2859   87.9333    9.8432 C.ar    1  UNL1        0.0638
      9 C          60.3705   87.6301    8.6941 C.3     1  UNL1        0.0522
     10 N          61.6717   86.8459   10.8018 N.ar    1  UNL1       -0.2307
     11 C          62.5870   87.1490   11.9508 C.ar    1  UNL1        0.1658
     12 C          62.3235   81.9018   13.6337 C.ar    1  UNL1        0.1724
     13 C          62.1053   82.8624   14.7650 C.ar    1  UNL1        0.0400
     14 C          62.3768   84.3247   14.5701 C.ar    1  UNL1        0.0035
     15 C          62.8664   84.8265   13.2441 C.ar    1  UNL1        0.0074
     16 C          63.0846   83.8659   12.1128 C.ar    1  UNL1        0.0402
     17 C          62.8131   82.4036   12.3077 C.ar    1  UNL1        0.1724
     18 C          60.6560   79.9663   14.1062 C.3     1  UNL1        0.2526
     19 O          62.0521   80.4395   13.8286 O.3     1  UNL1       -0.4684
     20 O          63.0313   81.4430   11.1765 O.3     1  UNL1       -0.4684
     21 C          63.9450   81.8114   10.0453 C.3     1  UNL1        0.2526
     22 N          63.2602   91.0173   11.3732 N.pl3   1  UNL1       -0.3168
     23 H          63.1066   91.7015   10.6822 H       1  UNL1        0.1482
     24 C          64.0237   91.3652   12.6166 C.3     1  UNL1        0.1057
     25 C          65.3187   92.1154   12.5162 C.3     1  UNL1        0.0937
     26 N          66.2102   92.2367   13.7165 N.3     1  UNL1       -0.2670
     27 C          65.6146   92.4802   15.0715 C.3     1  UNL1        0.1047
     28 C          66.5061   92.6015   16.2717 C.3     1  UNL1        0.1595
     29 O          67.9931   92.4793   16.1169 O.3     1  UNL1       -0.3508
     30 C          68.5886   92.2357   14.7620 C.3     1  UNL1        0.1595
     31 C          67.6971   92.1144   13.5617 C.3     1  UNL1        0.1047
@<TRIPOS>BOND
     1    18    19    1
     2    19    12    1
     3    12    13   ar
     4    13    14   ar
     5    14    15   ar
     6    15     1    1
     7     1     2   ar
     8     2     3    1
     9     2     4   ar
    10     4     5   ar
    11     5     6   ar
    12     6    22    1
    13    22    24    1
    14    24    25    1
    15    25    26    1
    16    26    27    1
    17    27    28    1
    18    28    29    1
    19    29    30    1
    20    30    31    1
    21     6     7   ar
    22     7     8   ar
    23     8     9    1
    24     8    10   ar
    25    10    11   ar
    26    15    16   ar
    27    16    17   ar
    28    17    20    1
    29    20    21    1
    30    17    12   ar
    31    11     1   ar
    32    11     5   ar
    33    31    26    1
    34    22    23    1
@<TRIPOS>MOLECULE
*****
 31 34 0 0 0
SMALL
GASTEIGER

@<TRIPOS>ATOM
      1 C          63.9466   89.7557   12.7823 C.ar    1  UNL1        0.0512
      2 C          63.1282   89.9326   11.5377 C.ar    1  UNL1        0.0823
      3 C          62.9562   91.2096   10.7696 C.3     1  UNL1        0.0540
      4 N          62.5121   88.6084   11.1959 N.ar    1  UNL1       -0.1670
      5 N          62.9498   87.6131   12.2294 N.ar    1  UNL1       -0.1991
      6 C          62.6555   86.1527   12.4043 C.ar    1  UNL1        0.1328
      7 C          63.2477   85.4014   13.5596 C.ar    1  UNL1        0.0489
      8 C          64.1343   86.1105   14.5399 C.ar    1  UNL1        0.0638
      9 C          64.7266   85.3592   15.6953 C.3     1  UNL1        0.0522
     10 N          64.4285   87.5709   14.3650 N.ar    1  UNL1       -0.2307
     11 C          63.8363   88.3222   13.2097 C.ar    1  UNL1        0.1658
     12 C          66.3166   92.9628   14.8675 C.ar    1  UNL1        0.1724
     13 C          65.6082   91.9120   15.6701 C.ar    1  UNL1        0.0400
     14 C          64.8182   90.8430   14.9750 C.ar    1  UNL1        0.0035
     15 C          64.7366   90.8247   13.4774 C.ar    1  UNL1        0.0074
     16 C          65.4449   91.8755   12.6748 C.ar    1  UNL1        0.0402
     17 C          66.2349   92.9445   13.3699 C.ar    1  UNL1        0.1724
     18 C          68.5342   93.7790   15.9472 C.3     1  UNL1        0.2526
     19 O          67.1066   94.0317   15.5627 O.3     1  UNL1       -0.4684
     20 O          66.9433   93.9953   12.5674 O.3     1  UNL1       -0.4684
     21 C          66.2417   94.6650   11.4232 C.3     1  UNL1        0.2526
     22 N          61.7689   85.4435   11.4238 N.pl3   1  UNL1       -0.3168
     23 H          60.8141   85.3154   11.6267 H       1  UNL1        0.1482
     24 C          62.3372   84.9297   10.1342 C.3     1  UNL1        0.1057
     25 C          62.3944   85.8234    8.9309 C.3     1  UNL1        0.0937
     26 N          61.1985   86.6442    8.5488 N.3     1  UNL1       -0.2670
     27 C          60.0593   86.0098    7.8073 C.3     1  UNL1        0.1047
     28 C          58.8633   86.8306    7.4251 C.3     1  UNL1        0.1595
     29 O          58.8066   88.2859    7.7845 O.3     1  UNL1       -0.3508
     30 C          59.9458   88.9203    8.5260 C.3     1  UNL1        0.1595
     31 C          61.1417   88.0994    8.9081 C.3     1  UNL1        0.1047
@<TRIPOS>BOND
     1    18    19    1
     2    19    12    1
     3    12    13   ar
     4    13    14   ar
     5    14    15   ar
     6    15     1    1
     7     1     2   ar
     8     2     3    1
     9     2     4   ar
    10     4     5   ar
    11     5     6   ar
    12     6    22    1
    13    22    24    1
    14    24    25    1
    15    25    26    1
    16    26    27    1
    17    27    28    1
    18    28    29    1
    19    29    30    1
    20    30    31    1
    21     6     7   ar
    22     7     8   ar
    23     8     9    1
    24     8    10   ar
    25    10    11   ar
    26    15    16   ar
    27    16    17   ar
    28    17    20    1
    29    20    21    1
    30    17    12   ar
    31    11     1   ar
    32    11     5   ar
    33    31    26    1
    34    22    23    1
@<TRIPOS>MOLECULE
*****
 31 34 0 0 0
SMALL
GASTEIGER

@<TRIPOS>ATOM
      1 C          62.7241   86.6937   11.1745 C.ar    1  UNL1        0.0512
      2 C          62.9799   85.9075   12.4261 C.ar    1  UNL1        0.0823
      3 C          62.7964   84.4278   12.5908 C.3     1  UNL1        0.0540
      4 N          63.4514   86.8606   13.4840 N.ar    1  UNL1       -0.1670
      5 N          63.4870   88.2359   12.8861 N.ar    1  UNL1       -0.1991
      6 C          63.8707   89.5689   13.4571 C.ar    1  UNL1        0.1328
      7 C          63.8048   90.7986   12.6008 C.ar    1  UNL1        0.0489
      8 C          63.3553   90.6954   11.1735 C.ar    1  UNL1        0.0638
      9 C          63.2894   91.9252   10.3171 C.3     1  UNL1        0.0522
     10 N          62.9716   89.3625   10.6025 N.ar    1  UNL1       -0.2307
     11 C          63.0375   88.1327   11.4588 C.ar    1  UNL1        0.1658
     12 C          61.2713   85.0276    7.2548 C.ar    1  UNL1        0.1724
     13 C          62.5897   84.5837    7.8159 C.ar    1  UNL1        0.0400
     14 C          63.0739   85.1391    9.1225 C.ar    1  UNL1        0.0035
     15 C          62.2398   86.1383    9.8679 C.ar    1  UNL1        0.0074
     16 C          60.9215   86.5822    9.3068 C.ar    1  UNL1        0.0402
     17 C          60.4373   86.0269    8.0002 C.ar    1  UNL1        0.1724
     18 C          61.7736   84.0775    4.8894 C.3     1  UNL1        0.2526
     19 O          60.7871   84.4723    5.9482 O.3     1  UNL1       -0.4684
     20 O          59.1189   86.4708    7.4391 O.3     1  UNL1       -0.4684
     21 C          58.7707   87.9294    7.4063 C.3     1  UNL1        0.2526
     22 N          64.3202   89.6721   14.8845 N.pl3   1  UNL1       -0.3168
     23 H          64.9772   89.0315   15.2412 H       1  UNL1        0.1482
     24 C          63.7686   90.7512   15.7684 C.3     1  UNL1        0.1057
     25 C          64.6207   91.9305   16.1332 C.3     1  UNL1        0.0937
     26 N          65.8959   92.1935   15.3883 N.3     1  UNL1       -0.2670
     27 C          65.8533   92.5586   13.9340 C.3     1  UNL1        0.1047
     28 C          67.1285   92.8216   13.1892 C.3     1  UNL1        0.1595
     29 O          68.4462   92.7194   13.8986 O.3     1  UNL1       -0.3508
     30 C          68.4887   92.3543   15.3528 C.3     1  UNL1        0.1595
     31 C          67.2136   92.0913   16.0977 C.3     1  UNL1        0.1047
@<TRIPOS>BOND
     1    18    19    1
     2    19    12    1
     3    12    13   ar
     4    13    14   ar
     5    14    15   ar
     6    15     1    1
     7     1     2   ar
     8     2     3    1
     9     2     4   ar
    10     4     5   ar
    11     5     6   ar
    12     6    22    1
    13    22    24    1
    14    24    25    1
    15    25    26    1
    16    26    27    1
    17    27    28    1
    18    28    29    1
    19    29    30    1
    20    30    31    1
    21     6     7   ar
    22     7     8   ar
    23     8     9    1
    24     8    10   ar
    25    10    11   ar
    26    15    16   ar
    27    16    17   ar
    28    17    20    1
    29    20    21    1
    30    17    12   ar
    31    11     1   ar
    32    11     5   ar
    33    31    26    1
    34    22    23    1
