@<TRIPOS>MOLECULE
*****
 37 40 0 0 0
SMALL
GASTEIGER

@<TRIPOS>ATOM
      1 C          64.5511   91.4461   13.4645 C.3     1  UNL1        0.0725
      2 C          64.3127   90.0029   13.1320 C.3     1  UNL1        0.0239
      3 C          63.9561   89.0320   14.2183 C.3     1  UNL1        0.0237
      4 C          63.8379   89.5042   15.6372 C.2     1  UNL1       -0.0441
      5 C          63.4813   88.5333   16.7235 C.2     1  UNL1       -0.0084
      6 C          64.0762   90.9473   15.9696 C.3     1  UNL1        0.0237
      7 C          64.4328   91.9183   14.8833 C.3     1  UNL1        0.0239
      8 C          63.2429   87.0901   16.3910 C.ar    1  UNL1        0.0024
      9 C          62.3660   86.2521   17.2734 C.ar    1  UNL1        0.0002
     10 C          62.1276   84.8089   16.9409 C.ar    1  UNL1        0.0031
     11 C          62.7662   84.2038   15.7259 C.ar    1  UNL1        0.0376
     12 C          63.6432   85.0419   14.8435 C.ar    1  UNL1        0.1472
     13 C          63.8815   86.4850   15.1760 C.ar    1  UNL1        0.0375
     14 O          64.2817   84.4369   13.6285 O.3     1  UNL1       -0.4361
     15 C          63.6907   84.6791   12.2713 C.ar    1  UNL1        0.2297
     16 C          64.1052   83.8256   11.1095 C.ar    1  UNL1        0.0581
     17 C          63.5141   84.0679    9.7524 C.ar    1  UNL1        0.0102
     18 C          62.5086   85.1637    9.5570 C.ar    1  UNL1        0.0907
     19 C          62.0941   86.0172   10.7187 C.ar    1  UNL1        0.1059
     20 N          62.6851   85.7749   12.0759 N.ar    1  UNL1       -0.2099
     21 C          61.9175   85.4059    8.1997 C.3     1  UNL1        0.4200
     22 F          61.3265   85.6481    6.8425 F       1  UNL1       -0.1658
     23 F          60.6754   85.9529    8.8382 F       1  UNL1       -0.1658
     24 F          63.1597   84.8589    7.5612 F       1  UNL1       -0.1658
     25 C          66.3308   92.8576   12.2035 C.2     1  UNL1        0.2488
     26 O          67.3973   92.3273   13.1152 O.2     1  UNL1       -0.2700
     27 N          64.9076   92.4170   12.3781 N.am    1  UNL1       -0.3024
     28 H          64.2076   92.7650   11.7797 H       1  UNL1        0.1497
     29 N          67.7571   96.7413    7.8581 N.pl3   1  UNL1       -0.3274
     30 C          67.4005   95.7704    8.9445 C.ar    1  UNL1        0.2137
     31 N          66.6762   96.2472   10.1684 N.ar    1  UNL1       -0.2123
     32 C          66.3196   95.2762   11.2547 C.ar    1  UNL1        0.1079
     33 C          66.6873   93.8286   11.1172 C.ar    1  UNL1        0.0917
     34 C          67.4116   93.3518    9.8932 C.ar    1  UNL1        0.1079
     35 N          67.7682   94.3227    8.8069 N.ar    1  UNL1       -0.2123
     36 H          67.5158   97.6915    7.9484 H       1  UNL1        0.1452
     37 H          68.2325   96.4284    7.0548 H       1  UNL1        0.1452
@<TRIPOS>BOND
     1    29    30    1
     2    30    31   ar
     3    31    32   ar
     4    32    33   ar
     5    33    25    1
     6    25    26    2
     7    25    27   am
     8    27     1    1
     9     1     2    1
    10     2     3    1
    11     3     4    1
    12     4     5    2
    13     5     8    1
    14     8     9   ar
    15     9    10   ar
    16    10    11   ar
    17    11    12   ar
    18    12    14    1
    19    14    15    1
    20    15    16   ar
    21    16    17   ar
    22    17    18   ar
    23    18    21    1
    24    21    22    1
    25    21    23    1
    26    21    24    1
    27    18    19   ar
    28    19    20   ar
    29    12    13   ar
    30     4     6    1
    31     6     7    1
    32    33    34   ar
    33    34    35   ar
    34    35    30   ar
    35     7     1    1
    36    13     8   ar
    37    20    15   ar
    38    29    36    1
    39    29    37    1
    40    27    28    1
@<TRIPOS>MOLECULE
*****
 37 40 0 0 0
SMALL
GASTEIGER

@<TRIPOS>ATOM
      1 C          60.1085   92.0699    3.9375 C.3     1  UNL1        0.0725
      2 C          61.0302   91.1995    4.7395 C.3     1  UNL1        0.0239
      3 C          60.4686   90.2410    5.7474 C.3     1  UNL1        0.0237
      4 C          58.9853   90.1529    5.9533 C.2     1  UNL1       -0.0441
      5 C          58.4237   89.1944    6.9612 C.2     1  UNL1       -0.0084
      6 C          58.0638   91.0232    5.1513 C.3     1  UNL1        0.0237
      7 C          58.6254   91.9817    4.1434 C.3     1  UNL1        0.0239
      8 C          59.3454   88.3240    7.7632 C.ar    1  UNL1        0.0024
      9 C          59.8385   87.0276    7.1923 C.ar    1  UNL1        0.0002
     10 C          60.7601   86.1572    7.9944 C.ar    1  UNL1        0.0031
     11 C          61.1886   86.5834    9.3672 C.ar    1  UNL1        0.0376
     12 C          60.6954   87.8800    9.9381 C.ar    1  UNL1        0.1472
     13 C          59.7738   88.7502    9.1361 C.ar    1  UNL1        0.0375
     14 O          61.1239   88.3062   11.3110 O.3     1  UNL1       -0.4361
     15 C          62.1735   89.3653   11.4740 C.ar    1  UNL1        0.2297
     16 C          62.5571   90.2270   10.3077 C.ar    1  UNL1        0.0581
     17 C          63.6066   91.2861   10.4707 C.ar    1  UNL1        0.0102
     18 C          64.2727   91.4835   11.8002 C.ar    1  UNL1        0.0907
     19 C          63.8891   90.6219   12.9665 C.ar    1  UNL1        0.1059
     20 N          62.8395   89.5628   12.8035 N.ar    1  UNL1       -0.2099
     21 C          65.3223   92.5427   11.9632 C.3     1  UNL1        0.4200
     22 F          66.3719   93.6018   12.1263 F       1  UNL1       -0.1658
     23 F          64.8705   93.1871   10.6863 F       1  UNL1       -0.1658
     24 F          65.7741   91.8984   13.2402 F       1  UNL1       -0.1658
     25 C          61.9677   92.7201    2.2432 C.2     1  UNL1        0.2488
     26 O          62.7037   91.4532    2.5646 O.2     1  UNL1       -0.2700
     27 N          60.6702   93.0284    2.9296 N.am    1  UNL1       -0.3024
     28 H          60.1871   93.8599    2.7186 H       1  UNL1        0.1497
     29 N          64.2141   96.5541   -1.7885 N.pl3   1  UNL1       -0.3274
     30 C          63.6525   95.5956   -0.7806 C.ar    1  UNL1        0.2137
     31 N          62.2251   95.7238   -0.3378 N.ar    1  UNL1       -0.2123
     32 C          61.6635   94.7653    0.6701 C.ar    1  UNL1        0.1079
     33 C          62.5293   93.6786    1.2352 C.ar    1  UNL1        0.0917
     34 C          63.9567   93.5504    0.7925 C.ar    1  UNL1        0.1079
     35 N          64.5183   94.5089   -0.2154 N.ar    1  UNL1       -0.2123
     36 H          63.6459   97.2673   -2.1594 H       1  UNL1        0.1452
     37 H          65.1510   96.4699   -2.0791 H       1  UNL1        0.1452
@<TRIPOS>BOND
     1    29    30    1
     2    30    31   ar
     3    31    32   ar
     4    32    33   ar
     5    33    25    1
     6    25    26    2
     7    25    27   am
     8    27     1    1
     9     1     2    1
    10     2     3    1
    11     3     4    1
    12     4     5    2
    13     5     8    1
    14     8     9   ar
    15     9    10   ar
    16    10    11   ar
    17    11    12   ar
    18    12    14    1
    19    14    15    1
    20    15    16   ar
    21    16    17   ar
    22    17    18   ar
    23    18    21    1
    24    21    22    1
    25    21    23    1
    26    21    24    1
    27    18    19   ar
    28    19    20   ar
    29    12    13   ar
    30     4     6    1
    31     6     7    1
    32    33    34   ar
    33    34    35   ar
    34    35    30   ar
    35     7     1    1
    36    13     8   ar
    37    20    15   ar
    38    29    36    1
    39    29    37    1
    40    27    28    1
@<TRIPOS>MOLECULE
*****
 37 40 0 0 0
SMALL
GASTEIGER

@<TRIPOS>ATOM
      1 C          63.6495   84.4285   14.0950 C.3     1  UNL1        0.0725
      2 C          63.8290   85.5288   13.0914 C.3     1  UNL1        0.0239
      3 C          63.9559   86.9507   13.5520 C.3     1  UNL1        0.0237
      4 C          63.9033   87.2723   15.0162 C.2     1  UNL1       -0.0441
      5 C          64.0302   88.6942   15.4768 C.2     1  UNL1       -0.0084
      6 C          63.7238   86.1721   16.0197 C.3     1  UNL1        0.0237
      7 C          63.5969   84.7502   15.5592 C.3     1  UNL1        0.0239
      8 C          64.2097   89.7945   14.4731 C.ar    1  UNL1        0.0024
      9 C          65.4012   90.7015   14.5596 C.ar    1  UNL1        0.0002
     10 C          65.5807   91.8018   13.5560 C.ar    1  UNL1        0.0031
     11 C          64.5686   91.9950   12.4658 C.ar    1  UNL1        0.0376
     12 C          63.3771   91.0879   12.3794 C.ar    1  UNL1        0.1472
     13 C          63.1976   89.9877   13.3830 C.ar    1  UNL1        0.0375
     14 O          62.3650   91.2811   11.2892 O.3     1  UNL1       -0.4361
     15 C          61.8483   90.0969   10.5271 C.ar    1  UNL1        0.2297
     16 C          62.6595   88.8370   10.4585 C.ar    1  UNL1        0.0581
     17 C          62.1429   87.6529    9.6963 C.ar    1  UNL1        0.0102
     18 C          60.8150   87.7287    9.0028 C.ar    1  UNL1        0.0907
     19 C          60.0038   88.9885    9.0713 C.ar    1  UNL1        0.1059
     20 N          60.5205   90.1726    9.8335 N.ar    1  UNL1       -0.2099
     21 C          60.2984   86.5445    8.2406 C.3     1  UNL1        0.4200
     22 F          59.7817   85.3604    7.4785 F       1  UNL1       -0.1658
     23 F          61.7059   86.0852    8.0000 F       1  UNL1       -0.1658
     24 F          58.8909   87.0038    8.4811 F       1  UNL1       -0.1658
     25 C          63.0859   82.7092   12.2306 C.2     1  UNL1        0.2488
     26 O          62.7761   83.8335   11.2874 O.2     1  UNL1       -0.2700
     27 N          63.5225   83.0067   13.6345 N.am    1  UNL1       -0.3024
     28 H          63.7258   82.2687   14.2536 H       1  UNL1        0.1497
     29 N          62.5782   77.0216   10.3883 N.pl3   1  UNL1       -0.3274
     30 C          62.7051   78.4435   10.8489 C.ar    1  UNL1        0.2137
     31 N          63.0312   79.5252    9.8622 N.ar    1  UNL1       -0.2123
     32 C          63.1581   80.9471   10.3228 C.ar    1  UNL1        0.1079
     33 C          62.9590   81.2873   11.7701 C.ar    1  UNL1        0.0917
     34 C          62.6329   80.2056   12.7567 C.ar    1  UNL1        0.1079
     35 N          62.5060   78.7837   12.2962 N.ar    1  UNL1       -0.2123
     36 H          62.7089   76.7983    9.4384 H       1  UNL1        0.1452
     37 H          62.3642   76.3117   11.0359 H       1  UNL1        0.1452
@<TRIPOS>BOND
     1    29    30    1
     2    30    31   ar
     3    31    32   ar
     4    32    33   ar
     5    33    25    1
     6    25    26    2
     7    25    27   am
     8    27     1    1
     9     1     2    1
    10     2     3    1
    11     3     4    1
    12     4     5    2
    13     5     8    1
    14     8     9   ar
    15     9    10   ar
    16    10    11   ar
    17    11    12   ar
    18    12    14    1
    19    14    15    1
    20    15    16   ar
    21    16    17   ar
    22    17    18   ar
    23    18    21    1
    24    21    22    1
    25    21    23    1
    26    21    24    1
    27    18    19   ar
    28    19    20   ar
    29    12    13   ar
    30     4     6    1
    31     6     7    1
    32    33    34   ar
    33    34    35   ar
    34    35    30   ar
    35     7     1    1
    36    13     8   ar
    37    20    15   ar
    38    29    36    1
    39    29    37    1
    40    27    28    1
@<TRIPOS>MOLECULE
*****
 37 40 0 0 0
SMALL
GASTEIGER

@<TRIPOS>ATOM
      1 C          62.0744   86.3660   11.0877 C.3     1  UNL1        0.0725
      2 C          63.0425   87.1958   11.8779 C.3     1  UNL1        0.0239
      3 C          63.2502   88.6402   11.5304 C.3     1  UNL1        0.0237
      4 C          62.4899   89.2546   10.3926 C.2     1  UNL1       -0.0441
      5 C          62.6977   90.6990   10.0450 C.2     1  UNL1       -0.0084
      6 C          61.5219   88.4248    9.6025 C.3     1  UNL1        0.0237
      7 C          61.3142   86.9805    9.9500 C.3     1  UNL1        0.0239
      8 C          63.6658   91.5288   10.8352 C.ar    1  UNL1        0.0024
      9 C          64.5280   92.5405   10.1403 C.ar    1  UNL1        0.0002
     10 C          65.4960   93.3703   10.9305 C.ar    1  UNL1        0.0031
     11 C          65.6018   93.1883   12.4156 C.ar    1  UNL1        0.0376
     12 C          64.7395   92.1766   13.1106 C.ar    1  UNL1        0.1472
     13 C          63.7715   91.3468   12.3204 C.ar    1  UNL1        0.0375
     14 O          64.8453   91.9946   14.5958 O.3     1  UNL1       -0.4361
     15 C          64.3767   90.7187   15.2303 C.ar    1  UNL1        0.2297
     16 C          64.7545   89.3983   14.6272 C.ar    1  UNL1        0.0581
     17 C          64.2859   88.1225   15.2618 C.ar    1  UNL1        0.0102
     18 C          63.4396   88.1671   16.4994 C.ar    1  UNL1        0.0907
     19 C          63.0619   89.4875   17.1025 C.ar    1  UNL1        0.1059
     20 N          63.5304   90.7633   16.4680 N.ar    1  UNL1       -0.2099
     21 C          62.9710   86.8912   17.1340 C.3     1  UNL1        0.4200
     22 F          62.5025   85.6154   17.7686 F       1  UNL1       -0.1658
     23 F          63.1908   86.1665   15.8392 F       1  UNL1       -0.1658
     24 F          62.7513   87.6159   18.4288 F       1  UNL1       -0.1658
     25 C          62.7981   84.2392   12.3926 C.2     1  UNL1        0.2488
     26 O          63.9372   85.0010   13.0024 O.2     1  UNL1       -0.2700
     27 N          61.8666   84.9217   11.4353 N.am    1  UNL1       -0.3024
     28 H          61.1189   84.4217   11.0350 H       1  UNL1        0.1497
     29 N          61.9670   78.4619   13.7829 N.pl3   1  UNL1       -0.3274
     30 C          62.1748   79.9063   13.4353 C.ar    1  UNL1        0.2137
     31 N          61.8819   80.9715   14.4499 N.ar    1  UNL1       -0.2123
     32 C          62.0897   82.4158   14.1024 C.ar    1  UNL1        0.1079
     33 C          62.5903   82.7949   12.7402 C.ar    1  UNL1        0.0917
     34 C          62.8832   81.7297   11.7256 C.ar    1  UNL1        0.1079
     35 N          62.6754   80.2854   12.0731 N.ar    1  UNL1       -0.2123
     36 H          61.6384   78.2131   14.6769 H       1  UNL1        0.1452
     37 H          62.1592   77.7628   13.1169 H       1  UNL1        0.1452
@<TRIPOS>BOND
     1    29    30    1
     2    30    31   ar
     3    31    32   ar
     4    32    33   ar
     5    33    25    1
     6    25    26    2
     7    25    27   am
     8    27     1    1
     9     1     2    1
    10     2     3    1
    11     3     4    1
    12     4     5    2
    13     5     8    1
    14     8     9   ar
    15     9    10   ar
    16    10    11   ar
    17    11    12   ar
    18    12    14    1
    19    14    15    1
    20    15    16   ar
    21    16    17   ar
    22    17    18   ar
    23    18    21    1
    24    21    22    1
    25    21    23    1
    26    21    24    1
    27    18    19   ar
    28    19    20   ar
    29    12    13   ar
    30     4     6    1
    31     6     7    1
    32    33    34   ar
    33    34    35   ar
    34    35    30   ar
    35     7     1    1
    36    13     8   ar
    37    20    15   ar
    38    29    36    1
    39    29    37    1
    40    27    28    1
@<TRIPOS>MOLECULE
*****
 37 40 0 0 0
SMALL
GASTEIGER

@<TRIPOS>ATOM
      1 C          62.3795   85.6514   11.2494 C.3     1  UNL1        0.0725
      2 C          63.3672   86.1746   12.2499 C.3     1  UNL1        0.0239
      3 C          63.3840   87.6345   12.5943 C.3     1  UNL1        0.0237
      4 C          62.4131   88.5711   11.9384 C.2     1  UNL1       -0.0441
      5 C          62.4299   90.0309   12.2828 C.2     1  UNL1       -0.0084
      6 C          61.4255   88.0478   10.9380 C.3     1  UNL1        0.0237
      7 C          61.4086   86.5880   10.5935 C.3     1  UNL1        0.0239
      8 C          63.4176   90.5541   13.2832 C.ar    1  UNL1        0.0024
      9 C          63.1665   90.3723   14.7508 C.ar    1  UNL1        0.0002
     10 C          64.1542   90.8955   15.7512 C.ar    1  UNL1        0.0031
     11 C          65.3930   91.6005   15.2839 C.ar    1  UNL1        0.0376
     12 C          65.6441   91.7823   13.8163 C.ar    1  UNL1        0.1472
     13 C          64.6564   91.2591   12.8160 C.ar    1  UNL1        0.0375
     14 O          66.8829   92.4873   13.3490 O.3     1  UNL1       -0.4361
     15 C          66.8343   93.3609   12.1306 C.ar    1  UNL1        0.2297
     16 C          66.1783   94.7080   12.1993 C.ar    1  UNL1        0.0581
     17 C          66.1297   95.5816   10.9809 C.ar    1  UNL1        0.0102
     18 C          66.7371   95.1079    9.6937 C.ar    1  UNL1        0.0907
     19 C          67.3931   93.7607    9.6250 C.ar    1  UNL1        0.1059
     20 N          67.4417   92.8872   10.8434 N.ar    1  UNL1       -0.2099
     21 C          66.6885   95.9815    8.4753 C.3     1  UNL1        0.4200
     22 F          66.6399   96.8550    7.2569 F       1  UNL1       -0.1658
     23 F          67.9815   95.3889    7.9988 F       1  UNL1       -0.1658
     24 F          65.3956   96.5741    8.9518 F       1  UNL1       -0.1658
     25 C          62.8317   83.1791   11.9073 C.2     1  UNL1        0.2488
     26 O          63.3177   83.6263   13.2540 O.2     1  UNL1       -0.2700
     27 N          62.3626   84.1916   10.9050 N.am    1  UNL1       -0.3024
     28 H          62.0437   83.8981   10.0211 H       1  UNL1        0.1497
     29 N          62.7645   77.3398   10.5295 N.pl3   1  UNL1       -0.3274
     30 C          62.7813   78.7996   10.8739 C.ar    1  UNL1        0.2137
     31 N          63.0393   79.8195    9.8048 N.ar    1  UNL1       -0.2123
     32 C          63.0561   81.2794   10.1492 C.ar    1  UNL1        0.1079
     33 C          62.8149   81.7192   11.5628 C.ar    1  UNL1        0.0917
     34 C          62.5569   80.6993   12.6320 C.ar    1  UNL1        0.1079
     35 N          62.5401   79.2395   12.2875 N.ar    1  UNL1       -0.2123
     36 H          62.9228   77.0511    9.6017 H       1  UNL1        0.1452
     37 H          62.5951   76.6704   11.2312 H       1  UNL1        0.1452
@<TRIPOS>BOND
     1    29    30    1
     2    30    31   ar
     3    31    32   ar
     4    32    33   ar
     5    33    25    1
     6    25    26    2
     7    25    27   am
     8    27     1    1
     9     1     2    1
    10     2     3    1
    11     3     4    1
    12     4     5    2
    13     5     8    1
    14     8     9   ar
    15     9    10   ar
    16    10    11   ar
    17    11    12   ar
    18    12    14    1
    19    14    15    1
    20    15    16   ar
    21    16    17   ar
    22    17    18   ar
    23    18    21    1
    24    21    22    1
    25    21    23    1
    26    21    24    1
    27    18    19   ar
    28    19    20   ar
    29    12    13   ar
    30     4     6    1
    31     6     7    1
    32    33    34   ar
    33    34    35   ar
    34    35    30   ar
    35     7     1    1
    36    13     8   ar
    37    20    15   ar
    38    29    36    1
    39    29    37    1
    40    27    28    1
@<TRIPOS>MOLECULE
*****
 37 40 0 0 0
SMALL
GASTEIGER

@<TRIPOS>ATOM
      1 C          61.6928   86.7268    8.9368 C.3     1  UNL1        0.0725
      2 C          61.3119   86.3934   10.3489 C.3     1  UNL1        0.0239
      3 C          61.9261   85.2071   11.0311 C.3     1  UNL1        0.0237
      4 C          62.9212   84.3543   10.3014 C.2     1  UNL1       -0.0441
      5 C          63.5355   83.1680   10.9836 C.2     1  UNL1       -0.0084
      6 C          63.3021   84.6878    8.8894 C.3     1  UNL1        0.0237
      7 C          62.6879   85.8740    8.2071 C.3     1  UNL1        0.0239
      8 C          63.1546   82.8346   12.3957 C.ar    1  UNL1        0.0024
      9 C          62.2680   81.6574   12.6753 C.ar    1  UNL1        0.0002
     10 C          61.8871   81.3239   14.0873 C.ar    1  UNL1        0.0031
     11 C          62.3928   82.1677   15.2197 C.ar    1  UNL1        0.0376
     12 C          63.2794   83.3450   14.9400 C.ar    1  UNL1        0.1472
     13 C          63.6602   83.6784   13.5281 C.ar    1  UNL1        0.0375
     14 O          63.7850   84.1888   16.0724 O.3     1  UNL1       -0.4361
     15 C          63.7792   85.6842   15.9542 C.ar    1  UNL1        0.2297
     16 C          64.4748   86.3482   14.8031 C.ar    1  UNL1        0.0581
     17 C          64.4689   87.8435   14.6849 C.ar    1  UNL1        0.0102
     18 C          63.7675   88.6747   15.7179 C.ar    1  UNL1        0.0907
     19 C          63.0719   88.0107   16.8690 C.ar    1  UNL1        0.1059
     20 N          63.0778   86.5154   16.9872 N.ar    1  UNL1       -0.2099
     21 C          63.7617   90.1701   15.5997 C.3     1  UNL1        0.4200
     22 F          63.7558   91.6654   15.4815 F       1  UNL1       -0.1658
     23 F          64.3767   90.0647   14.2356 F       1  UNL1       -0.1658
     24 F          63.1467   90.2755   16.9637 F       1  UNL1       -0.1658
     25 C          59.8572   87.7384    7.4015 C.2     1  UNL1        0.2488
     26 O          59.2501   86.3775    7.2307 O.2     1  UNL1       -0.2700
     27 N          61.0786   87.9131    8.2545 N.am    1  UNL1       -0.3024
     28 H          61.4771   88.8063    8.3667 H       1  UNL1        0.1497
     29 N          57.4003   92.4835    4.6724 N.pl3   1  UNL1       -0.3274
     30 C          58.0146   91.2972    5.3546 C.ar    1  UNL1        0.2137
     31 N          57.1413   90.3027    6.0605 N.ar    1  UNL1       -0.2123
     32 C          57.7555   89.1165    6.7428 C.ar    1  UNL1        0.1079
     33 C          59.2430   88.9247    6.7192 C.ar    1  UNL1        0.0917
     34 C          60.1163   89.9192    6.0133 C.ar    1  UNL1        0.1079
     35 N          59.5020   91.1055    5.3310 N.ar    1  UNL1       -0.2123
     36 H          56.4240   92.6094    4.6879 H       1  UNL1        0.1452
     37 H          57.9735   93.1362    4.2091 H       1  UNL1        0.1452
@<TRIPOS>BOND
     1    29    30    1
     2    30    31   ar
     3    31    32   ar
     4    32    33   ar
     5    33    25    1
     6    25    26    2
     7    25    27   am
     8    27     1    1
     9     1     2    1
    10     2     3    1
    11     3     4    1
    12     4     5    2
    13     5     8    1
    14     8     9   ar
    15     9    10   ar
    16    10    11   ar
    17    11    12   ar
    18    12    14    1
    19    14    15    1
    20    15    16   ar
    21    16    17   ar
    22    17    18   ar
    23    18    21    1
    24    21    22    1
    25    21    23    1
    26    21    24    1
    27    18    19   ar
    28    19    20   ar
    29    12    13   ar
    30     4     6    1
    31     6     7    1
    32    33    34   ar
    33    34    35   ar
    34    35    30   ar
    35     7     1    1
    36    13     8   ar
    37    20    15   ar
    38    29    36    1
    39    29    37    1
    40    27    28    1
@<TRIPOS>MOLECULE
*****
 37 40 0 0 0
SMALL
GASTEIGER

@<TRIPOS>ATOM
      1 C          64.1778   87.4824   15.1876 C.3     1  UNL1        0.0725
      2 C          64.2478   86.5509   14.0140 C.3     1  UNL1        0.0239
      3 C          63.6861   85.1642   14.1225 C.3     1  UNL1        0.0237
      4 C          63.0545   84.7091   15.4047 C.2     1  UNL1       -0.0441
      5 C          62.4928   83.3225   15.5132 C.2     1  UNL1       -0.0084
      6 C          62.9844   85.6406   16.5783 C.3     1  UNL1        0.0237
      7 C          63.5461   87.0273   16.4697 C.3     1  UNL1        0.0239
      8 C          62.5628   82.3909   14.3396 C.ar    1  UNL1        0.0024
      9 C          62.3505   80.9192   14.5365 C.ar    1  UNL1        0.0002
     10 C          62.4205   79.9877   13.3628 C.ar    1  UNL1        0.0031
     11 C          62.7029   80.5280   11.9923 C.ar    1  UNL1        0.0376
     12 C          62.9153   81.9998   11.7954 C.ar    1  UNL1        0.1472
     13 C          62.8452   82.9313   12.9690 C.ar    1  UNL1        0.0375
     14 O          63.1976   82.5401   10.4249 O.3     1  UNL1       -0.4361
     15 C          62.7571   83.9268   10.0599 C.ar    1  UNL1        0.2297
     16 C          63.1081   84.4963    8.7174 C.ar    1  UNL1        0.0581
     17 C          62.6676   85.8829    8.3525 C.ar    1  UNL1        0.0102
     18 C          61.8761   86.7000    9.3302 C.ar    1  UNL1        0.0907
     19 C          61.5251   86.1306   10.6727 C.ar    1  UNL1        0.1059
     20 N          61.9656   84.7439   11.0376 N.ar    1  UNL1       -0.2099
     21 C          61.4355   88.0867    8.9652 C.3     1  UNL1        0.4200
     22 F          60.9950   89.4733    8.6003 F       1  UNL1       -0.1658
     23 F          62.4962   88.6588    9.8584 F       1  UNL1       -0.1658
     24 F          60.3749   87.5147    8.0721 F       1  UNL1       -0.1658
     25 C          64.4733   89.6923   13.8538 C.2     1  UNL1        0.2488
     26 O          63.6455   89.1288   12.7370 O.2     1  UNL1       -0.2700
     27 N          64.7394   88.8690   15.0791 N.am    1  UNL1       -0.3024
     28 H          65.2828   89.2388   15.8121 H       1  UNL1        0.1497
     29 N          66.7199   95.2388   13.4197 N.pl3   1  UNL1       -0.3274
     30 C          66.1583   93.8522   13.5282 C.ar    1  UNL1        0.2137
     31 N          65.5985   93.1725   12.3139 N.ar    1  UNL1       -0.2123
     32 C          65.0369   91.7859   12.4224 C.ar    1  UNL1        0.1079
     33 C          65.0349   91.0789   13.7453 C.ar    1  UNL1        0.0917
     34 C          65.5947   91.7585   14.9596 C.ar    1  UNL1        0.1079
     35 N          66.1564   93.1452   14.8511 N.ar    1  UNL1       -0.2123
     36 H          66.7212   95.7028   12.5514 H       1  UNL1        0.1452
     37 H          67.0873   95.6849   14.2168 H       1  UNL1        0.1452
@<TRIPOS>BOND
     1    29    30    1
     2    30    31   ar
     3    31    32   ar
     4    32    33   ar
     5    33    25    1
     6    25    26    2
     7    25    27   am
     8    27     1    1
     9     1     2    1
    10     2     3    1
    11     3     4    1
    12     4     5    2
    13     5     8    1
    14     8     9   ar
    15     9    10   ar
    16    10    11   ar
    17    11    12   ar
    18    12    14    1
    19    14    15    1
    20    15    16   ar
    21    16    17   ar
    22    17    18   ar
    23    18    21    1
    24    21    22    1
    25    21    23    1
    26    21    24    1
    27    18    19   ar
    28    19    20   ar
    29    12    13   ar
    30     4     6    1
    31     6     7    1
    32    33    34   ar
    33    34    35   ar
    34    35    30   ar
    35     7     1    1
    36    13     8   ar
    37    20    15   ar
    38    29    36    1
    39    29    37    1
    40    27    28    1
@<TRIPOS>MOLECULE
*****
 37 40 0 0 0
SMALL
GASTEIGER

@<TRIPOS>ATOM
      1 C          63.5325   86.2503   15.5512 C.3     1  UNL1        0.0725
      2 C          64.2913   87.1292   14.6015 C.3     1  UNL1        0.0239
      3 C          64.4459   88.5921   14.8944 C.3     1  UNL1        0.0237
      4 C          63.8417   89.1762   16.1370 C.2     1  UNL1       -0.0441
      5 C          63.9964   90.6392   16.4299 C.2     1  UNL1       -0.0084
      6 C          63.0830   88.2973   17.0866 C.3     1  UNL1        0.0237
      7 C          62.9284   86.8343   16.7937 C.3     1  UNL1        0.0239
      8 C          64.7551   91.5181   15.4802 C.ar    1  UNL1        0.0024
      9 C          65.8089   92.4503   16.0003 C.ar    1  UNL1        0.0002
     10 C          66.5677   93.3292   15.0506 C.ar    1  UNL1        0.0031
     11 C          66.2727   93.2759   13.5809 C.ar    1  UNL1        0.0376
     12 C          65.2188   92.3436   13.0608 C.ar    1  UNL1        0.1472
     13 C          64.4601   91.4647   14.0105 C.ar    1  UNL1        0.0375
     14 O          64.9238   92.2902   11.5911 O.3     1  UNL1       -0.4361
     15 C          63.8970   91.3306   11.0666 C.ar    1  UNL1        0.2297
     16 C          63.5942   90.0699   11.8208 C.ar    1  UNL1        0.0581
     17 C          62.5675   89.1104   11.2964 C.ar    1  UNL1        0.0102
     18 C          61.8435   89.4117   10.0176 C.ar    1  UNL1        0.0907
     19 C          62.1463   90.6724    9.2634 C.ar    1  UNL1        0.1059
     20 N          63.1730   91.6319    9.7879 N.ar    1  UNL1       -0.2099
     21 C          60.8167   88.4521    9.4932 C.3     1  UNL1        0.4200
     22 F          59.7899   87.4926    8.9687 F       1  UNL1       -0.1658
     23 F          61.9028   87.4738    9.1566 F       1  UNL1       -0.1658
     24 F          59.7306   89.4304    9.8297 F       1  UNL1       -0.1658
     25 C          62.8759   84.3398   13.9176 C.2     1  UNL1        0.2488
     26 O          62.5286   85.3553   12.8697 O.2     1  UNL1       -0.2700
     27 N          63.3778   84.7873   15.2583 N.am    1  UNL1       -0.3024
     28 H          63.6058   84.1208   15.9461 H       1  UNL1        0.1497
     29 N          62.2574   78.4879   12.7460 N.pl3   1  UNL1       -0.3274
     30 C          62.4120   79.9508   13.0389 C.ar    1  UNL1        0.2137
     31 N          61.8420   80.5274   14.3008 N.ar    1  UNL1       -0.2123
     32 C          61.9966   81.9904   14.5937 C.ar    1  UNL1        0.1079
     33 C          62.7213   82.8768   13.6247 C.ar    1  UNL1        0.0917
     34 C          63.2913   82.3002   12.3627 C.ar    1  UNL1        0.1079
     35 N          63.1367   80.8372   12.0698 N.ar    1  UNL1       -0.2123
     36 H          61.7818   77.9061   13.3820 H       1  UNL1        0.1452
     37 H          62.6315   78.1094   11.9177 H       1  UNL1        0.1452
@<TRIPOS>BOND
     1    29    30    1
     2    30    31   ar
     3    31    32   ar
     4    32    33   ar
     5    33    25    1
     6    25    26    2
     7    25    27   am
     8    27     1    1
     9     1     2    1
    10     2     3    1
    11     3     4    1
    12     4     5    2
    13     5     8    1
    14     8     9   ar
    15     9    10   ar
    16    10    11   ar
    17    11    12   ar
    18    12    14    1
    19    14    15    1
    20    15    16   ar
    21    16    17   ar
    22    17    18   ar
    23    18    21    1
    24    21    22    1
    25    21    23    1
    26    21    24    1
    27    18    19   ar
    28    19    20   ar
    29    12    13   ar
    30     4     6    1
    31     6     7    1
    32    33    34   ar
    33    34    35   ar
    34    35    30   ar
    35     7     1    1
    36    13     8   ar
    37    20    15   ar
    38    29    36    1
    39    29    37    1
    40    27    28    1
@<TRIPOS>MOLECULE
*****
 37 40 0 0 0
SMALL
GASTEIGER

@<TRIPOS>ATOM
      1 C          59.3521   92.0150    4.0246 C.3     1  UNL1        0.0725
      2 C          60.5477   91.5535    4.8040 C.3     1  UNL1        0.0239
      3 C          60.3722   90.6153    5.9612 C.3     1  UNL1        0.0237
      4 C          59.0010   90.1385    6.3388 C.2     1  UNL1       -0.0441
      5 C          58.8255   89.2003    7.4960 C.2     1  UNL1       -0.0084
      6 C          57.8054   90.6000    5.5594 C.3     1  UNL1        0.0237
      7 C          57.9809   91.5382    4.4023 C.3     1  UNL1        0.0239
      8 C          60.0212   88.7388    8.2754 C.ar    1  UNL1        0.0024
      9 C          60.6184   89.6255    9.3276 C.ar    1  UNL1        0.0002
     10 C          61.8141   89.1640   10.1070 C.ar    1  UNL1        0.0031
     11 C          62.4125   87.8159    9.8342 C.ar    1  UNL1        0.0376
     12 C          61.8153   86.9292    8.7819 C.ar    1  UNL1        0.1472
     13 C          60.6196   87.3907    8.0026 C.ar    1  UNL1        0.0375
     14 O          62.4137   85.5811    8.5091 O.3     1  UNL1       -0.4361
     15 C          62.7945   84.6847    9.6500 C.ar    1  UNL1        0.2297
     16 C          63.9045   83.6897    9.4839 C.ar    1  UNL1        0.0581
     17 C          64.2852   82.7934   10.6248 C.ar    1  UNL1        0.0102
     18 C          63.5558   82.8921   11.9318 C.ar    1  UNL1        0.0907
     19 C          62.4458   83.8871   12.0979 C.ar    1  UNL1        0.1059
     20 N          62.0651   84.7834   10.9570 N.ar    1  UNL1       -0.2099
     21 C          63.9366   81.9957   13.0727 C.3     1  UNL1        0.4200
     22 F          64.3173   81.0994   14.2135 F       1  UNL1       -0.1658
     23 F          64.6158   83.1481   13.7515 F       1  UNL1       -0.1658
     24 F          63.2574   80.8434   12.3939 F       1  UNL1       -0.1658
     25 C          60.8726   93.1030    2.2207 C.2     1  UNL1        0.2488
     26 O          62.0421   92.3145    2.7310 O.2     1  UNL1       -0.2700
     27 N          59.5276   92.9532    2.8675 N.am    1  UNL1       -0.3024
     28 H          58.7599   93.4707    2.5325 H       1  UNL1        0.1497
     29 N          61.5747   96.8559   -2.4078 N.pl3   1  UNL1       -0.3274
     30 C          61.3991   95.9176   -1.2507 C.ar    1  UNL1        0.2137
     31 N          60.5154   96.3016   -0.1012 N.ar    1  UNL1       -0.2123
     32 C          60.3398   95.3634    1.0560 C.ar    1  UNL1        0.1079
     33 C          61.0481   94.0412    1.0636 C.ar    1  UNL1        0.0917
     34 C          61.9319   93.6572   -0.0860 C.ar    1  UNL1        0.1079
     35 N          62.1074   94.5954   -1.2431 N.ar    1  UNL1       -0.2123
     36 H          61.1098   97.7237   -2.4128 H       1  UNL1        0.1452
     37 H          62.1547   96.6038   -3.1623 H       1  UNL1        0.1452
@<TRIPOS>BOND
     1    29    30    1
     2    30    31   ar
     3    31    32   ar
     4    32    33   ar
     5    33    25    1
     6    25    26    2
     7    25    27   am
     8    27     1    1
     9     1     2    1
    10     2     3    1
    11     3     4    1
    12     4     5    2
    13     5     8    1
    14     8     9   ar
    15     9    10   ar
    16    10    11   ar
    17    11    12   ar
    18    12    14    1
    19    14    15    1
    20    15    16   ar
    21    16    17   ar
    22    17    18   ar
    23    18    21    1
    24    21    22    1
    25    21    23    1
    26    21    24    1
    27    18    19   ar
    28    19    20   ar
    29    12    13   ar
    30     4     6    1
    31     6     7    1
    32    33    34   ar
    33    34    35   ar
    34    35    30   ar
    35     7     1    1
    36    13     8   ar
    37    20    15   ar
    38    29    36    1
    39    29    37    1
    40    27    28    1
