@<TRIPOS>MOLECULE
*****
 29 33 0 0 0
SMALL
GASTEIGER

@<TRIPOS>ATOM
      1 C          64.5018   89.3144   15.1882 C.2     1  UNL1       -0.0160
      2 C          64.8008   88.1578   14.2810 C.2     1  UNL1       -0.0038
      3 C          64.2261   86.8042   14.5770 C.2     1  UNL1        0.0025
      4 C          63.3524   86.6072   15.7802 C.2     1  UNL1        0.0350
      5 C          62.6495   85.3984   16.3231 C.2     1  UNL1        0.1040
      6 N          61.9161   85.8078   17.5658 N.2     1  UNL1       -0.1483
      7 N          62.1657   87.2697   17.7910 N.2     1  UNL1       -0.1520
      8 C          63.0534   87.7637   16.6874 C.2     1  UNL1        0.0864
      9 C          63.6281   89.1173   16.3915 C.3     1  UNL1        0.0739
     10 O          66.1750   93.5906   13.9432 O.2     1  UNL1       -0.2698
     11 C          65.3162   92.6657   13.1326 C.2     1  UNL1        0.2495
     12 N          64.8114   92.9218   11.7435 N.am    1  UNL1       -0.2804
     13 C          63.9946   91.7368   11.3212 C.ar    1  UNL1        0.0506
     14 C          63.2508   91.4301   10.0552 C.ar    1  UNL1        0.0147
     15 C          62.5070   90.1349    9.9173 C.ar    1  UNL1        0.0013
     16 C          62.5069   89.1463   11.0454 C.ar    1  UNL1        0.0001
     17 C          63.2506   89.4529   12.3114 C.ar    1  UNL1        0.0014
     18 C          63.9945   90.7481   12.4493 C.ar    1  UNL1        0.0179
     19 C          64.8112   91.3223   13.5688 C.2     1  UNL1        0.0546
     20 C          65.0765   90.6678   14.8922 C.2     1  UNL1        0.0007
     21 H          64.9857   93.7265   11.2037 H       1  UNL1        0.1552
     22 C          62.6755   84.0219   15.7277 C.2     1  UNL1        0.0209
     23 C          62.3980   83.8316   14.2659 C.2     1  UNL1        0.0017
     24 C          62.4239   82.4550   13.6706 C.ar    1  UNL1        0.0031
     25 C          61.7201   81.3253   14.3622 C.ar    1  UNL1        0.0207
     26 C          61.7461   79.9488   13.7669 C.ar    1  UNL1        0.0989
     27 N          62.4759   79.7019   12.4798 N.ar    1  UNL1       -0.2423
     28 C          63.1797   80.8316   11.7882 C.ar    1  UNL1        0.0989
     29 C          63.1537   82.2082   12.3836 C.ar    1  UNL1        0.0207
@<TRIPOS>BOND
     1    10    11    2
     2    11    12   am
     3    12    13    1
     4    13    14   ar
     5    14    15   ar
     6    15    16   ar
     7    16    17   ar
     8    17    18   ar
     9    18    19    1
    10    19    20    2
    11    20     1    1
    12     1     2    2
    13     2     3    1
    14     3     4    2
    15     4     5    1
    16     5    22    1
    17    22    23    2
    18    23    24    1
    19    24    25   ar
    20    25    26   ar
    21    26    27   ar
    22    27    28   ar
    23    28    29   ar
    24     5     6    2
    25     6     7    1
    26     7     8    2
    27     8     9    1
    28    19    11    1
    29     9     1    1
    30    18    13   ar
    31     8     4    1
    32    29    24   ar
    33    12    21    1
@<TRIPOS>MOLECULE
*****
 29 33 0 0 0
SMALL
GASTEIGER

@<TRIPOS>ATOM
      1 C          64.3186   89.6995   14.2111 C.2     1  UNL1       -0.0160
      2 C          64.5814   88.2359   14.4084 C.2     1  UNL1       -0.0038
      3 C          63.9326   87.2289   13.5056 C.2     1  UNL1        0.0025
      4 C          63.0210   87.6856   12.4053 C.2     1  UNL1        0.0350
      5 C          62.2454   86.9312   11.3665 C.2     1  UNL1        0.1040
      6 N          61.5033   87.9285   10.5271 N.2     1  UNL1       -0.1483
      7 N          61.8202   89.2993   11.0472 N.2     1  UNL1       -0.1520
      8 C          62.7582   89.1492   12.2080 C.2     1  UNL1        0.0864
      9 C          63.4070   90.1561   13.1109 C.3     1  UNL1        0.0739
     10 O          66.4409   93.0817   16.7980 O.2     1  UNL1       -0.2698
     11 C          66.2348   93.0514   15.3126 C.2     1  UNL1        0.2495
     12 N          66.6698   94.1075   14.3403 N.am    1  UNL1       -0.2804
     13 C          66.2613   93.6685   12.9654 C.ar    1  UNL1        0.0506
     14 C          66.4266   94.3060   11.6177 C.ar    1  UNL1        0.0147
     15 C          65.9043   93.6160   10.3926 C.ar    1  UNL1        0.0013
     16 C          65.2169   92.2884   10.5151 C.ar    1  UNL1        0.0001
     17 C          65.0516   91.6509   11.8627 C.ar    1  UNL1        0.0014
     18 C          65.5739   92.3409   13.0879 C.ar    1  UNL1        0.0179
     19 C          65.5575   91.9596   14.5385 C.2     1  UNL1        0.0546
     20 C          64.9673   90.7063   15.1140 C.2     1  UNL1        0.0007
     21 H          67.1407   94.9424   14.5651 H       1  UNL1        0.1552
     22 C          62.2170   85.4411   11.1968 C.2     1  UNL1        0.0209
     23 C          62.8682   84.5573   12.2189 C.2     1  UNL1        0.0017
     24 C          62.8398   83.0672   12.0492 C.ar    1  UNL1        0.0031
     25 C          63.2977   82.4501   10.7610 C.ar    1  UNL1        0.0207
     26 C          63.2693   80.9600   10.5913 C.ar    1  UNL1        0.0989
     27 N          62.7829   80.0869   11.7098 N.ar    1  UNL1       -0.2423
     28 C          62.3250   80.7040   12.9980 C.ar    1  UNL1        0.0989
     29 C          62.3534   82.1941   13.1677 C.ar    1  UNL1        0.0207
@<TRIPOS>BOND
     1    10    11    2
     2    11    12   am
     3    12    13    1
     4    13    14   ar
     5    14    15   ar
     6    15    16   ar
     7    16    17   ar
     8    17    18   ar
     9    18    19    1
    10    19    20    2
    11    20     1    1
    12     1     2    2
    13     2     3    1
    14     3     4    2
    15     4     5    1
    16     5    22    1
    17    22    23    2
    18    23    24    1
    19    24    25   ar
    20    25    26   ar
    21    26    27   ar
    22    27    28   ar
    23    28    29   ar
    24     5     6    2
    25     6     7    1
    26     7     8    2
    27     8     9    1
    28    19    11    1
    29     9     1    1
    30    18    13   ar
    31     8     4    1
    32    29    24   ar
    33    12    21    1
@<TRIPOS>MOLECULE
*****
 29 33 0 0 0
SMALL
GASTEIGER

@<TRIPOS>ATOM
      1 C          63.8287   84.6328   15.3337 C.2     1  UNL1       -0.0160
      2 C          64.8332   85.4895   14.6215 C.2     1  UNL1       -0.0038
      3 C          64.7839   86.9816   14.7670 C.2     1  UNL1        0.0025
      4 C          63.7301   87.6171   15.6246 C.2     1  UNL1        0.0350
      5 C          63.4348   89.0500   15.9553 C.2     1  UNL1        0.1040
      6 N          62.2477   89.0791   16.8719 N.2     1  UNL1       -0.1483
      7 N          61.8094   87.6641   17.1076 N.2     1  UNL1       -0.1520
      8 C          62.7256   86.7605   16.3367 C.2     1  UNL1        0.0864
      9 C          62.7748   85.2684   16.1913 C.3     1  UNL1        0.0739
     10 O          63.9242   79.9429   14.5392 O.2     1  UNL1       -0.2698
     11 C          63.6934   81.0413   13.5441 C.2     1  UNL1        0.2495
     12 N          63.4433   80.8626   12.0759 N.am    1  UNL1       -0.2804
     13 C          63.2675   82.2221   11.4668 C.ar    1  UNL1        0.0506
     14 C          62.9969   82.6638   10.0591 C.ar    1  UNL1        0.0147
     15 C          62.8677   84.1244    9.7432 C.ar    1  UNL1        0.0013
     16 C          63.0091   85.1433   10.8350 C.ar    1  UNL1        0.0001
     17 C          63.2798   84.7016   12.2426 C.ar    1  UNL1        0.0014
     18 C          63.4089   83.2409   12.5585 C.ar    1  UNL1        0.0179
     19 C          63.6722   82.5111   13.8423 C.2     1  UNL1        0.0546
     20 C          63.8780   83.1408   15.1882 C.2     1  UNL1        0.0007
     21 H          63.4018   80.0039   11.5963 H       1  UNL1        0.1552
     22 C          64.1934   90.2443   15.4570 C.2     1  UNL1        0.0209
     23 C          64.3734   90.4569   13.9831 C.2     1  UNL1        0.0017
     24 C          65.1320   91.6512   13.4847 C.ar    1  UNL1        0.0031
     25 C          66.0338   92.4082   14.4141 C.ar    1  UNL1        0.0207
     26 C          66.7924   93.6024   13.9157 C.ar    1  UNL1        0.0989
     27 N          66.6491   94.0397   12.4881 N.ar    1  UNL1       -0.2423
     28 C          65.7473   93.2828   11.5588 C.ar    1  UNL1        0.0989
     29 C          64.9887   92.0885   12.0571 C.ar    1  UNL1        0.0207
@<TRIPOS>BOND
     1    10    11    2
     2    11    12   am
     3    12    13    1
     4    13    14   ar
     5    14    15   ar
     6    15    16   ar
     7    16    17   ar
     8    17    18   ar
     9    18    19    1
    10    19    20    2
    11    20     1    1
    12     1     2    2
    13     2     3    1
    14     3     4    2
    15     4     5    1
    16     5    22    1
    17    22    23    2
    18    23    24    1
    19    24    25   ar
    20    25    26   ar
    21    26    27   ar
    22    27    28   ar
    23    28    29   ar
    24     5     6    2
    25     6     7    1
    26     7     8    2
    27     8     9    1
    28    19    11    1
    29     9     1    1
    30    18    13   ar
    31     8     4    1
    32    29    24   ar
    33    12    21    1
@<TRIPOS>MOLECULE
*****
 29 33 0 0 0
SMALL
GASTEIGER

@<TRIPOS>ATOM
      1 C          61.0558   90.0453   10.4605 C.2     1  UNL1       -0.0160
      2 C          62.4728   90.4750   10.2205 C.2     1  UNL1       -0.0038
      3 C          63.4358   90.5587   11.3675 C.2     1  UNL1        0.0025
      4 C          62.9818   90.2127   12.7546 C.2     1  UNL1        0.0350
      5 C          63.6992   90.2015   14.0719 C.2     1  UNL1        0.1040
      6 N          62.7256   89.7648   15.1262 N.2     1  UNL1       -0.1483
      7 N          61.4065   89.5062   14.4604 N.2     1  UNL1       -0.1520
      8 C          61.5649   89.7830   12.9947 C.2     1  UNL1        0.0864
      9 C          60.6019   89.6993   11.8477 C.3     1  UNL1        0.0739
     10 O          58.1237   89.4678    6.7586 O.2     1  UNL1       -0.2698
     11 C          59.1415   88.5010    7.2871 C.2     1  UNL1        0.2495
     12 N          59.4329   87.1374    6.7341 N.am    1  UNL1       -0.2804
     13 C          60.5181   86.5217    7.5667 C.ar    1  UNL1        0.0506
     14 C          61.2099   85.1930    7.4906 C.ar    1  UNL1        0.0147
     15 C          62.2810   84.8472    8.4821 C.ar    1  UNL1        0.0013
     16 C          62.6603   85.8303    9.5497 C.ar    1  UNL1        0.0001
     17 C          61.9686   87.1590    9.6258 C.ar    1  UNL1        0.0014
     18 C          60.8975   87.5047    8.6343 C.ar    1  UNL1        0.0179
     19 C          60.0467   88.7280    8.4615 C.2     1  UNL1        0.0546
     20 C          60.0929   89.9616    9.3135 C.2     1  UNL1        0.0007
     21 H          58.9897   86.7199    5.9605 H       1  UNL1        0.1552
     22 C          65.1376   90.5633   14.2956 C.2     1  UNL1        0.0209
     23 C          65.5604   92.0024   14.2782 C.2     1  UNL1        0.0017
     24 C          66.9988   92.3643   14.5019 C.ar    1  UNL1        0.0031
     25 C          68.0570   91.8384   13.5780 C.ar    1  UNL1        0.0207
     26 C          69.4954   92.2002   13.8017 C.ar    1  UNL1        0.0989
     27 N          69.8756   93.0880   14.9494 N.ar    1  UNL1       -0.2423
     28 C          68.8175   93.6139   15.8734 C.ar    1  UNL1        0.0989
     29 C          67.3790   93.2520   15.6496 C.ar    1  UNL1        0.0207
@<TRIPOS>BOND
     1    10    11    2
     2    11    12   am
     3    12    13    1
     4    13    14   ar
     5    14    15   ar
     6    15    16   ar
     7    16    17   ar
     8    17    18   ar
     9    18    19    1
    10    19    20    2
    11    20     1    1
    12     1     2    2
    13     2     3    1
    14     3     4    2
    15     4     5    1
    16     5    22    1
    17    22    23    2
    18    23    24    1
    19    24    25   ar
    20    25    26   ar
    21    26    27   ar
    22    27    28   ar
    23    28    29   ar
    24     5     6    2
    25     6     7    1
    26     7     8    2
    27     8     9    1
    28    19    11    1
    29     9     1    1
    30    18    13   ar
    31     8     4    1
    32    29    24   ar
    33    12    21    1
@<TRIPOS>MOLECULE
*****
 29 33 0 0 0
SMALL
GASTEIGER

@<TRIPOS>ATOM
      1 C          63.5634   91.1836   10.4870 C.2     1  UNL1       -0.0160
      2 C          64.0503   90.2145   11.5233 C.2     1  UNL1       -0.0038
      3 C          63.3176   88.9249   11.7473 C.2     1  UNL1        0.0025
      4 C          62.0979   88.6045   10.9350 C.2     1  UNL1        0.0350
      5 C          61.1764   87.4209   10.9322 C.2     1  UNL1        0.1040
      6 N          60.1200   87.6585    9.8942 N.2     1  UNL1       -0.1483
      7 N          60.3886   88.9889    9.2555 N.2     1  UNL1       -0.1520
      8 C          61.6111   89.5735    9.8988 C.2     1  UNL1        0.0864
      9 C          62.3437   90.8631    9.6747 C.3     1  UNL1        0.0739
     10 O          66.0032   95.2494   10.0966 O.2     1  UNL1       -0.2698
     11 C          65.9107   94.3412   11.2869 C.2     1  UNL1        0.2495
     12 N          66.5867   94.5496   12.6096 N.am    1  UNL1       -0.2804
     13 C          66.2198   93.4024   13.5036 C.ar    1  UNL1        0.0506
     14 C          66.5911   93.0746   14.9194 C.ar    1  UNL1        0.0147
     15 C          66.0597   91.8294   15.5650 C.ar    1  UNL1        0.0013
     16 C          65.1569   90.9118   14.7948 C.ar    1  UNL1        0.0001
     17 C          64.7856   91.2396   13.3789 C.ar    1  UNL1        0.0014
     18 C          65.3171   92.4849   12.7333 C.ar    1  UNL1        0.0179
     19 C          65.1261   93.0651   11.3634 C.2     1  UNL1        0.0546
     20 C          64.2961   92.4731   10.2630 C.2     1  UNL1        0.0007
     21 H          67.1689   95.3066   12.8490 H       1  UNL1        0.1552
     22 C          61.2912   86.2121   11.8128 C.2     1  UNL1        0.0209
     23 C          62.4983   85.3267   11.7175 C.2     1  UNL1        0.0017
     24 C          62.6130   84.1178   12.5981 C.ar    1  UNL1        0.0031
     25 C          62.6750   82.7488   11.9883 C.ar    1  UNL1        0.0207
     26 C          62.7898   81.5399   12.8689 C.ar    1  UNL1        0.0989
     27 N          62.8426   81.7000   14.3593 N.ar    1  UNL1       -0.2423
     28 C          62.7806   83.0690   14.9692 C.ar    1  UNL1        0.0989
     29 C          62.6658   84.2779   14.0886 C.ar    1  UNL1        0.0207
@<TRIPOS>BOND
     1    10    11    2
     2    11    12   am
     3    12    13    1
     4    13    14   ar
     5    14    15   ar
     6    15    16   ar
     7    16    17   ar
     8    17    18   ar
     9    18    19    1
    10    19    20    2
    11    20     1    1
    12     1     2    2
    13     2     3    1
    14     3     4    2
    15     4     5    1
    16     5    22    1
    17    22    23    2
    18    23    24    1
    19    24    25   ar
    20    25    26   ar
    21    26    27   ar
    22    27    28   ar
    23    28    29   ar
    24     5     6    2
    25     6     7    1
    26     7     8    2
    27     8     9    1
    28    19    11    1
    29     9     1    1
    30    18    13   ar
    31     8     4    1
    32    29    24   ar
    33    12    21    1
@<TRIPOS>MOLECULE
*****
 29 33 0 0 0
SMALL
GASTEIGER

@<TRIPOS>ATOM
      1 C          63.8634   86.9401   15.1760 C.2     1  UNL1       -0.0160
      2 C          64.5473   87.5334   13.9800 C.2     1  UNL1       -0.0038
      3 C          64.7220   89.0196   13.8763 C.2     1  UNL1        0.0025
      4 C          64.2128   89.9126   14.9688 C.2     1  UNL1        0.0350
      5 C          64.2405   91.4022   15.1421 C.2     1  UNL1        0.1040
      6 N          63.5738   91.7297   16.4452 N.2     1  UNL1       -0.1483
      7 N          63.1341   90.4425   17.0773 N.2     1  UNL1       -0.1520
      8 C          63.5290   89.3193   16.1648 C.2     1  UNL1        0.0864
      9 C          63.3543   87.8332   16.2684 C.3     1  UNL1        0.0739
     10 O          63.2110   82.2274   15.1779 O.2     1  UNL1       -0.2698
     11 C          63.0017   83.1859   14.0433 C.2     1  UNL1        0.2495
     12 N          62.5360   82.8296   12.6626 N.am    1  UNL1       -0.2804
     13 C          62.4678   84.0925   11.8561 C.ar    1  UNL1        0.0506
     14 C          62.0748   84.3541   10.4323 C.ar    1  UNL1        0.0147
     15 C          62.1052   85.7526    9.8908 C.ar    1  UNL1        0.0013
     16 C          62.5288   86.8894   10.7730 C.ar    1  UNL1        0.0001
     17 C          62.9218   86.6278   12.1967 C.ar    1  UNL1        0.0014
     18 C          62.8913   85.2293   12.7383 C.ar    1  UNL1        0.0179
     19 C          63.2213   84.6690   14.0900 C.2     1  UNL1        0.0546
     20 C          63.6887   85.4540   15.2796 C.2     1  UNL1        0.0007
     21 H          62.3141   81.9256   12.3421 H       1  UNL1        0.1552
     22 C          64.8312   92.3909   14.1810 C.2     1  UNL1        0.0209
     23 C          65.5549   91.9084   12.9589 C.2     1  UNL1        0.0017
     24 C          66.1456   92.8970   11.9978 C.ar    1  UNL1        0.0031
     25 C          66.0396   94.3674   12.2746 C.ar    1  UNL1        0.0207
     26 C          66.6303   95.3560   11.3135 C.ar    1  UNL1        0.0989
     27 N          67.3270   94.8743   10.0756 N.ar    1  UNL1       -0.2423
     28 C          67.4331   93.4038    9.7988 C.ar    1  UNL1        0.0989
     29 C          66.8424   92.4152   10.7599 C.ar    1  UNL1        0.0207
@<TRIPOS>BOND
     1    10    11    2
     2    11    12   am
     3    12    13    1
     4    13    14   ar
     5    14    15   ar
     6    15    16   ar
     7    16    17   ar
     8    17    18   ar
     9    18    19    1
    10    19    20    2
    11    20     1    1
    12     1     2    2
    13     2     3    1
    14     3     4    2
    15     4     5    1
    16     5    22    1
    17    22    23    2
    18    23    24    1
    19    24    25   ar
    20    25    26   ar
    21    26    27   ar
    22    27    28   ar
    23    28    29   ar
    24     5     6    2
    25     6     7    1
    26     7     8    2
    27     8     9    1
    28    19    11    1
    29     9     1    1
    30    18    13   ar
    31     8     4    1
    32    29    24   ar
    33    12    21    1
@<TRIPOS>MOLECULE
*****
 29 33 0 0 0
SMALL
GASTEIGER

@<TRIPOS>ATOM
      1 C          62.1269   85.2068   10.4041 C.2     1  UNL1       -0.0160
      2 C          62.3206   85.7451    9.0174 C.2     1  UNL1       -0.0038
      3 C          61.7170   87.0634    8.6334 C.2     1  UNL1        0.0025
      4 C          60.9195   87.8436    9.6361 C.2     1  UNL1        0.0350
      5 C          60.2100   89.1622    9.5473 C.2     1  UNL1        0.1040
      6 N          59.5778   89.4390   10.8791 N.2     1  UNL1       -0.1483
      7 N          59.8965   88.2915   11.7910 N.2     1  UNL1       -0.1520
      8 C          60.7257   87.3054   11.0228 C.2     1  UNL1        0.0864
      9 C          61.3294   85.9871   11.4068 C.3     1  UNL1        0.0739
     10 O          64.1769   81.1803   11.8941 O.2     1  UNL1       -0.2698
     11 C          64.2312   82.5343   12.5372 C.2     1  UNL1        0.2495
     12 N          64.9598   82.8814   13.8016 N.am    1  UNL1       -0.2804
     13 C          64.7453   84.3406   14.0747 C.ar    1  UNL1        0.0506
     14 C          65.2229   85.2358   15.1794 C.ar    1  UNL1        0.0147
     15 C          64.8393   86.6858   15.1885 C.ar    1  UNL1        0.0013
     16 C          63.9781   87.2407   14.0929 C.ar    1  UNL1        0.0001
     17 C          63.5005   86.3456   12.9881 C.ar    1  UNL1        0.0014
     18 C          63.8841   84.8955   12.9790 C.ar    1  UNL1        0.0179
     19 C          63.5664   83.7792   12.0288 C.2     1  UNL1        0.0546
     20 C          62.7305   83.8885   10.7881 C.2     1  UNL1        0.0007
     21 H          65.4863   82.2604   14.3551 H       1  UNL1        0.1552
     22 C          60.1444   90.0484    8.3389 C.2     1  UNL1        0.0209
     23 C          59.3516   89.6227    7.1388 C.2     1  UNL1        0.0017
     24 C          59.2859   90.5089    5.9303 C.ar    1  UNL1        0.0031
     25 C          60.5460   90.8953    5.2142 C.ar    1  UNL1        0.0207
     26 C          60.4803   91.7815    4.0057 C.ar    1  UNL1        0.0989
     27 N          59.1545   92.2814    3.5135 N.ar    1  UNL1       -0.2423
     28 C          57.8945   91.8951    4.2296 C.ar    1  UNL1        0.0989
     29 C          57.9601   91.0088    5.4381 C.ar    1  UNL1        0.0207
@<TRIPOS>BOND
     1    10    11    2
     2    11    12   am
     3    12    13    1
     4    13    14   ar
     5    14    15   ar
     6    15    16   ar
     7    16    17   ar
     8    17    18   ar
     9    18    19    1
    10    19    20    2
    11    20     1    1
    12     1     2    2
    13     2     3    1
    14     3     4    2
    15     4     5    1
    16     5    22    1
    17    22    23    2
    18    23    24    1
    19    24    25   ar
    20    25    26   ar
    21    26    27   ar
    22    27    28   ar
    23    28    29   ar
    24     5     6    2
    25     6     7    1
    26     7     8    2
    27     8     9    1
    28    19    11    1
    29     9     1    1
    30    18    13   ar
    31     8     4    1
    32    29    24   ar
    33    12    21    1
@<TRIPOS>MOLECULE
*****
 29 33 0 0 0
SMALL
GASTEIGER

@<TRIPOS>ATOM
      1 C          62.2774   89.4971   12.4801 C.2     1  UNL1       -0.0160
      2 C          61.4012   90.4847   11.7681 C.2     1  UNL1       -0.0038
      3 C          60.7783   90.1228   10.4524 C.2     1  UNL1        0.0025
      4 C          61.0317   88.7732    9.8486 C.2     1  UNL1        0.0350
      5 C          60.5580   88.1386    8.5747 C.2     1  UNL1        0.1040
      6 N          61.1415   86.7589    8.4993 N.2     1  UNL1       -0.1483
      7 N          61.9758   86.5407    9.7266 N.2     1  UNL1       -0.1520
      8 C          61.9079   87.7856   10.5606 C.2     1  UNL1        0.0864
      9 C          62.5308   88.1476   11.8763 C.3     1  UNL1        0.0739
     10 O          64.4545   90.8625   16.4840 O.2     1  UNL1       -0.2698
     11 C          64.7130   91.3404   15.0859 C.2     1  UNL1        0.2495
     12 N          65.7313   92.3635   14.6779 N.am    1  UNL1       -0.2804
     13 C          65.6462   92.5346   13.1901 C.ar    1  UNL1        0.0506
     14 C          66.4055   93.4071   12.2351 C.ar    1  UNL1        0.0147
     15 C          66.0940   93.3623   10.7686 C.ar    1  UNL1        0.0013
     16 C          65.0231   92.4450   10.2570 C.ar    1  UNL1        0.0001
     17 C          64.2638   91.5724   11.2120 C.ar    1  UNL1        0.0014
     18 C          64.5754   91.6172   12.6786 C.ar    1  UNL1        0.0179
     19 C          63.9986   90.8792   13.8502 C.2     1  UNL1        0.0546
     20 C          62.9003   89.8591   13.7957 C.2     1  UNL1        0.0007
     21 H          66.3473   92.8392   15.2808 H       1  UNL1        0.1552
     22 C          59.6587   88.7726    7.5552 C.2     1  UNL1        0.0209
     23 C          60.0635   90.0561    6.8927 C.2     1  UNL1        0.0017
     24 C          59.1642   90.6900    5.8732 C.ar    1  UNL1        0.0031
     25 C          57.6824   90.4663    5.9377 C.ar    1  UNL1        0.0207
     26 C          56.7831   91.1002    4.9181 C.ar    1  UNL1        0.0989
     27 N          57.3656   91.9579    3.8341 N.ar    1  UNL1       -0.2423
     28 C          58.8474   92.1816    3.7697 C.ar    1  UNL1        0.0989
     29 C          59.7467   91.5476    4.7892 C.ar    1  UNL1        0.0207
@<TRIPOS>BOND
     1    10    11    2
     2    11    12   am
     3    12    13    1
     4    13    14   ar
     5    14    15   ar
     6    15    16   ar
     7    16    17   ar
     8    17    18   ar
     9    18    19    1
    10    19    20    2
    11    20     1    1
    12     1     2    2
    13     2     3    1
    14     3     4    2
    15     4     5    1
    16     5    22    1
    17    22    23    2
    18    23    24    1
    19    24    25   ar
    20    25    26   ar
    21    26    27   ar
    22    27    28   ar
    23    28    29   ar
    24     5     6    2
    25     6     7    1
    26     7     8    2
    27     8     9    1
    28    19    11    1
    29     9     1    1
    30    18    13   ar
    31     8     4    1
    32    29    24   ar
    33    12    21    1
@<TRIPOS>MOLECULE
*****
 29 33 0 0 0
SMALL
GASTEIGER

@<TRIPOS>ATOM
      1 C          61.5148   95.3525   -1.9446 C.2     1  UNL1       -0.0160
      2 C          61.1399   94.2234   -2.8583 C.2     1  UNL1       -0.0038
      3 C          59.6949   93.9230   -3.1256 C.2     1  UNL1        0.0025
      4 C          58.6246   94.7517   -2.4792 C.2     1  UNL1        0.0350
      5 C          57.1276   94.6929   -2.5535 C.2     1  UNL1        0.1040
      6 N          56.5772   95.7856   -1.6857 N.2     1  UNL1       -0.1483
      7 N          57.7340   96.5198   -1.0752 N.2     1  UNL1       -0.1520
      8 C          58.9994   95.8808   -1.5656 C.2     1  UNL1        0.0864
      9 C          60.4445   96.1812   -1.2983 C.3     1  UNL1        0.0739
     10 O          66.0820   96.0886   -0.8337 O.2     1  UNL1       -0.2698
     11 C          65.1002   95.1876   -0.1451 C.2     1  UNL1        0.2495
     12 N          65.3810   94.3287    1.0521 N.am    1  UNL1       -0.2804
     13 C          64.1194   93.5976    1.4043 C.ar    1  UNL1        0.0506
     14 C          63.7994   92.6138    2.4904 C.ar    1  UNL1        0.0147
     15 C          62.4188   92.0370    2.5969 C.ar    1  UNL1        0.0013
     16 C          61.3583   92.4441    1.6173 C.ar    1  UNL1        0.0001
     17 C          61.6784   93.4279    0.5312 C.ar    1  UNL1        0.0014
     18 C          63.0589   94.0046    0.4247 C.ar    1  UNL1        0.0179
     19 C          63.6651   94.9873   -0.5329 C.2     1  UNL1        0.0546
     20 C          62.9598   95.6528   -1.6773 C.2     1  UNL1        0.0007
     21 H          66.2421   94.2573    1.5240 H       1  UNL1        0.1552
     22 C          56.3224   93.7133   -3.3548 C.2     1  UNL1        0.0209
     23 C          56.6086   92.2446   -3.2510 C.2     1  UNL1        0.0017
     24 C          55.8034   91.2650   -4.0523 C.ar    1  UNL1        0.0031
     25 C          55.5786   91.4993   -5.5167 C.ar    1  UNL1        0.0207
     26 C          54.7734   90.5197   -6.3180 C.ar    1  UNL1        0.0989
     27 N          54.1930   89.3059   -5.6549 N.ar    1  UNL1       -0.2423
     28 C          54.4178   89.0716   -4.1905 C.ar    1  UNL1        0.0989
     29 C          55.2230   90.0512   -3.3892 C.ar    1  UNL1        0.0207
@<TRIPOS>BOND
     1    10    11    2
     2    11    12   am
     3    12    13    1
     4    13    14   ar
     5    14    15   ar
     6    15    16   ar
     7    16    17   ar
     8    17    18   ar
     9    18    19    1
    10    19    20    2
    11    20     1    1
    12     1     2    2
    13     2     3    1
    14     3     4    2
    15     4     5    1
    16     5    22    1
    17    22    23    2
    18    23    24    1
    19    24    25   ar
    20    25    26   ar
    21    26    27   ar
    22    27    28   ar
    23    28    29   ar
    24     5     6    2
    25     6     7    1
    26     7     8    2
    27     8     9    1
    28    19    11    1
    29     9     1    1
    30    18    13   ar
    31     8     4    1
    32    29    24   ar
    33    12    21    1
