@<TRIPOS>MOLECULE
*****
 30 32 0 0 0
SMALL
GASTEIGER

@<TRIPOS>ATOM
      1 O          59.9504   87.9404   11.5840 O.2     1  UNL1       -0.2732
      2 C          61.2197   88.7041   11.3484 C.2     1  UNL1        0.2430
      3 N          62.4426   87.9916   10.8517 N.am    1  UNL1       -0.2972
      4 H          63.2757   88.4929   10.6970 H       1  UNL1        0.1500
      5 C          61.2662   90.1805   11.6095 C.3     1  UNL1        0.1759
      6 N          62.3406   90.7538   12.4853 N.am    1  UNL1       -0.2931
      7 C          63.6564   91.1593   11.8902 C.2     1  UNL1        0.2462
      8 O          63.8979   90.9914   10.4193 O.2     1  UNL1       -0.2701
      9 H          62.1822   90.8640   13.4507 H       1  UNL1        0.1502
     10 C          64.7309   91.7326   12.7660 C.ar    1  UNL1        0.0534
     11 C          65.5088   92.9317   12.3112 C.ar    1  UNL1        0.0054
     12 C          66.5832   93.5050   13.1869 C.ar    1  UNL1        0.0115
     13 C          66.8797   92.8791   14.5175 C.ar    1  UNL1        0.0577
     14 CL         67.9541   93.4524   15.3933 Cl      1  UNL1       -0.0822
     15 C          66.1018   91.6800   14.9723 C.ar    1  UNL1        0.0115
     16 C          65.0274   91.1067   14.0965 C.ar    1  UNL1        0.0054
     17 C          62.3962   86.5152   10.5905 C.3     1  UNL1        0.1169
     18 C          62.7376   85.5487   11.6857 C.ar    1  UNL1       -0.0003
     19 C          62.4932   84.0812   11.4941 C.ar    1  UNL1       -0.0015
     20 C          62.8347   83.1147   12.5892 C.ar    1  UNL1        0.0111
     21 C          63.4206   83.6158   13.8760 C.ar    1  UNL1        0.0577
     22 CL         63.7621   82.6494   14.9712 Cl      1  UNL1       -0.0822
     23 C          63.6650   85.0833   14.0675 C.ar    1  UNL1        0.0111
     24 C          63.3235   86.0497   12.9723 C.ar    1  UNL1       -0.0015
     25 C          62.0083   86.0053    9.2342 C.ar    1  UNL1       -0.0003
     26 C          63.0252   85.3169    8.3728 C.ar    1  UNL1       -0.0024
     27 C          62.6373   84.8070    7.0164 C.ar    1  UNL1       -0.0003
     28 C          61.2326   84.9854    6.5216 C.ar    1  UNL1       -0.0000
     29 C          60.2157   85.6738    7.3831 C.ar    1  UNL1       -0.0003
     30 C          60.6036   86.1837    8.7394 C.ar    1  UNL1       -0.0024
@<TRIPOS>BOND
     1     1     2    2
     2     2     5    1
     3     5     6    1
     4     6     7   am
     5     7     8    2
     6     7    10    1
     7    10    11   ar
     8    11    12   ar
     9    12    13   ar
    10    13    14    1
    11    13    15   ar
    12    15    16   ar
    13     2     3   am
    14     3    17    1
    15    17    25    1
    16    25    26   ar
    17    26    27   ar
    18    27    28   ar
    19    28    29   ar
    20    29    30   ar
    21    17    18    1
    22    18    19   ar
    23    19    20   ar
    24    20    21   ar
    25    21    22    1
    26    21    23   ar
    27    23    24   ar
    28    16    10   ar
    29    30    25   ar
    30    24    18   ar
    31     6     9    1
    32     3     4    1
@<TRIPOS>MOLECULE
*****
 30 32 0 0 0
SMALL
GASTEIGER

@<TRIPOS>ATOM
      1 O          59.9314   87.9176   11.5828 O.2     1  UNL1       -0.2732
      2 C          61.1984   88.6864   11.3516 C.2     1  UNL1        0.2430
      3 N          62.4244   87.9796   10.8544 N.am    1  UNL1       -0.2972
      4 H          63.2561   88.4842   10.7026 H       1  UNL1        0.1500
      5 C          61.2395   90.1621   11.6176 C.3     1  UNL1        0.1759
      6 N          62.3197   90.7381   12.4845 N.am    1  UNL1       -0.2931
      7 C          63.6340   91.1355   11.8805 C.2     1  UNL1        0.2462
      8 O          63.8681   90.9568   10.4097 O.2     1  UNL1       -0.2701
      9 H          62.1660   90.8554   13.4498 H       1  UNL1        0.1502
     10 C          64.7142   91.7116   12.7474 C.ar    1  UNL1        0.0534
     11 C          65.0219   91.0877   14.0763 C.ar    1  UNL1        0.0054
     12 C          66.1021   91.6638   14.9431 C.ar    1  UNL1        0.0115
     13 C          66.8744   92.8637   14.4810 C.ar    1  UNL1        0.0577
     14 CL         67.9546   93.4398   15.3479 Cl      1  UNL1       -0.0822
     15 C          66.5667   93.4876   13.1521 C.ar    1  UNL1        0.0115
     16 C          65.4865   92.9115   12.2853 C.ar    1  UNL1        0.0054
     17 C          62.3834   86.5039   10.5884 C.3     1  UNL1        0.1169
     18 C          62.7230   85.5350   11.6819 C.ar    1  UNL1       -0.0003
     19 C          63.3116   86.0326   12.9688 C.ar    1  UNL1       -0.0015
     20 C          63.6511   85.0637   14.0624 C.ar    1  UNL1        0.0111
     21 C          63.4020   83.5971   13.8691 C.ar    1  UNL1        0.0577
     22 CL         63.7416   82.6282   14.9626 Cl      1  UNL1       -0.0822
     23 C          62.8134   83.0996   12.5822 C.ar    1  UNL1        0.0111
     24 C          62.4739   84.0685   11.4887 C.ar    1  UNL1       -0.0015
     25 C          62.0029   85.9972    9.2288 C.ar    1  UNL1       -0.0003
     26 C          63.0213   85.3007    8.3759 C.ar    1  UNL1       -0.0024
     27 C          62.6408   84.7939    7.0163 C.ar    1  UNL1       -0.0003
     28 C          61.2418   84.9837    6.5097 C.ar    1  UNL1       -0.0000
     29 C          60.2233   85.6803    7.3627 C.ar    1  UNL1       -0.0003
     30 C          60.6038   86.1870    8.7222 C.ar    1  UNL1       -0.0024
@<TRIPOS>BOND
     1     1     2    2
     2     2     5    1
     3     5     6    1
     4     6     7   am
     5     7     8    2
     6     7    10    1
     7    10    11   ar
     8    11    12   ar
     9    12    13   ar
    10    13    14    1
    11    13    15   ar
    12    15    16   ar
    13     2     3   am
    14     3    17    1
    15    17    25    1
    16    25    26   ar
    17    26    27   ar
    18    27    28   ar
    19    28    29   ar
    20    29    30   ar
    21    17    18    1
    22    18    19   ar
    23    19    20   ar
    24    20    21   ar
    25    21    22    1
    26    21    23   ar
    27    23    24   ar
    28    16    10   ar
    29    30    25   ar
    30    24    18   ar
    31     6     9    1
    32     3     4    1
@<TRIPOS>MOLECULE
*****
 30 32 0 0 0
SMALL
GASTEIGER

@<TRIPOS>ATOM
      1 O          62.4869   89.7429   16.0198 O.2     1  UNL1       -0.2732
      2 C          63.4437   88.5979   15.8664 C.2     1  UNL1        0.2430
      3 N          64.5894   88.7017   14.9039 N.am    1  UNL1       -0.2972
      4 H          65.2174   87.9502   14.8033 H       1  UNL1        0.1500
      5 C          63.2548   87.3491   16.6756 C.3     1  UNL1        0.1759
      6 N          62.9151   86.0573   15.9930 N.am    1  UNL1       -0.2931
      7 C          63.9483   85.3520   15.1653 C.2     1  UNL1        0.2462
      8 O          65.3213   85.9385   15.0202 O.2     1  UNL1       -0.2701
      9 H          62.0140   85.6723   16.0882 H       1  UNL1        0.1502
     10 C          63.6086   84.0602   14.4827 C.ar    1  UNL1        0.0534
     11 C          62.4589   83.2318   14.9745 C.ar    1  UNL1        0.0054
     12 C          62.1192   81.9401   14.2919 C.ar    1  UNL1        0.0115
     13 C          62.9293   81.4767   13.1175 C.ar    1  UNL1        0.0577
     14 CL         62.5895   80.1849   12.4349 Cl      1  UNL1       -0.0822
     15 C          64.0789   82.3051   12.6257 C.ar    1  UNL1        0.0115
     16 C          64.4186   83.5969   13.3083 C.ar    1  UNL1        0.0054
     17 C          64.7784   89.9505   14.0947 C.3     1  UNL1        0.1169
     18 C          65.7177   91.0184   14.5717 C.ar    1  UNL1       -0.0003
     19 C          65.3336   91.8931   15.7282 C.ar    1  UNL1       -0.0015
     20 C          66.2729   92.9609   16.2052 C.ar    1  UNL1        0.0111
     21 C          67.5962   93.1540   15.5257 C.ar    1  UNL1        0.0577
     22 CL         68.5355   94.2218   16.0027 Cl      1  UNL1       -0.0822
     23 C          67.9802   92.2793   14.3692 C.ar    1  UNL1        0.0111
     24 C          67.0409   91.2115   13.8922 C.ar    1  UNL1       -0.0015
     25 C          64.0281   90.1315   12.8085 C.ar    1  UNL1       -0.0003
     26 C          64.2028   91.3884   12.0088 C.ar    1  UNL1       -0.0024
     27 C          63.4525   91.5694   10.7226 C.ar    1  UNL1       -0.0003
     28 C          62.5274   90.4935   10.2361 C.ar    1  UNL1       -0.0000
     29 C          62.3527   89.2365   11.0359 C.ar    1  UNL1       -0.0003
     30 C          63.1030   89.0555   12.3221 C.ar    1  UNL1       -0.0024
@<TRIPOS>BOND
     1     1     2    2
     2     2     5    1
     3     5     6    1
     4     6     7   am
     5     7     8    2
     6     7    10    1
     7    10    11   ar
     8    11    12   ar
     9    12    13   ar
    10    13    14    1
    11    13    15   ar
    12    15    16   ar
    13     2     3   am
    14     3    17    1
    15    17    25    1
    16    25    26   ar
    17    26    27   ar
    18    27    28   ar
    19    28    29   ar
    20    29    30   ar
    21    17    18    1
    22    18    19   ar
    23    19    20   ar
    24    20    21   ar
    25    21    22    1
    26    21    23   ar
    27    23    24   ar
    28    16    10   ar
    29    30    25   ar
    30    24    18   ar
    31     6     9    1
    32     3     4    1
@<TRIPOS>MOLECULE
*****
 30 32 0 0 0
SMALL
GASTEIGER

@<TRIPOS>ATOM
      1 O          61.5877   89.7952   13.8112 O.2     1  UNL1       -0.2732
      2 C          62.4082   90.2213   12.6300 C.2     1  UNL1        0.2430
      3 N          63.8870   90.4241   12.7780 N.am    1  UNL1       -0.2972
      4 H          64.4255   90.7038   12.0027 H       1  UNL1        0.1500
      5 C          61.7499   90.4446   11.3008 C.3     1  UNL1        0.1759
      6 N          61.8903   89.4213   10.2130 N.am    1  UNL1       -0.2931
      7 C          61.1712   88.1093   10.3201 C.2     1  UNL1        0.2462
      8 O          60.3117   87.8205   11.5150 O.2     1  UNL1       -0.2701
      9 H          62.4544   89.6108    9.4287 H       1  UNL1        0.1502
     10 C          61.3116   87.0860    9.2323 C.ar    1  UNL1        0.0534
     11 C          62.6129   86.3637    9.0455 C.ar    1  UNL1        0.0054
     12 C          62.7532   85.3405    7.9577 C.ar    1  UNL1        0.0115
     13 C          61.5923   85.0396    7.0568 C.ar    1  UNL1        0.0577
     14 CL         61.7327   84.0163    5.9689 Cl      1  UNL1       -0.0822
     15 C          60.2911   85.7619    7.2435 C.ar    1  UNL1        0.0115
     16 C          60.1507   86.7851    8.3313 C.ar    1  UNL1        0.0054
     17 C          64.5453   90.2009   14.1072 C.3     1  UNL1        0.1169
     18 C          65.6092   91.1442   14.5851 C.ar    1  UNL1       -0.0003
     19 C          65.3933   91.9481   15.8330 C.ar    1  UNL1       -0.0015
     20 C          66.4572   92.8914   16.3109 C.ar    1  UNL1        0.0111
     21 C          67.7369   93.0309   15.5408 C.ar    1  UNL1        0.0577
     22 CL         68.8007   93.9742   16.0187 Cl      1  UNL1       -0.0822
     23 C          67.9527   92.2270   14.2930 C.ar    1  UNL1        0.0111
     24 C          66.8889   91.2837   13.8151 C.ar    1  UNL1       -0.0015
     25 C          64.1398   89.0343   14.9585 C.ar    1  UNL1       -0.0003
     26 C          64.4776   87.6380   14.5273 C.ar    1  UNL1       -0.0024
     27 C          64.0721   86.4713   15.3786 C.ar    1  UNL1       -0.0003
     28 C          63.3289   86.7012   16.6611 C.ar    1  UNL1       -0.0000
     29 C          62.9911   88.0977   17.0923 C.ar    1  UNL1       -0.0003
     30 C          63.3966   89.2642   16.2410 C.ar    1  UNL1       -0.0024
@<TRIPOS>BOND
     1     1     2    2
     2     2     5    1
     3     5     6    1
     4     6     7   am
     5     7     8    2
     6     7    10    1
     7    10    11   ar
     8    11    12   ar
     9    12    13   ar
    10    13    14    1
    11    13    15   ar
    12    15    16   ar
    13     2     3   am
    14     3    17    1
    15    17    25    1
    16    25    26   ar
    17    26    27   ar
    18    27    28   ar
    19    28    29   ar
    20    29    30   ar
    21    17    18    1
    22    18    19   ar
    23    19    20   ar
    24    20    21   ar
    25    21    22    1
    26    21    23   ar
    27    23    24   ar
    28    16    10   ar
    29    30    25   ar
    30    24    18   ar
    31     6     9    1
    32     3     4    1
@<TRIPOS>MOLECULE
*****
 30 32 0 0 0
SMALL
GASTEIGER

@<TRIPOS>ATOM
      1 O          61.8446   89.8249   13.6600 O.2     1  UNL1       -0.2732
      2 C          62.6497   90.3835   12.5244 C.2     1  UNL1        0.2430
      3 N          64.1001   90.7105   12.7228 N.am    1  UNL1       -0.2972
      4 H          64.6285   91.0771   11.9774 H       1  UNL1        0.1500
      5 C          62.0044   90.6153   11.1903 C.3     1  UNL1        0.1759
      6 N          62.0669   89.5537   10.1323 N.am    1  UNL1       -0.2931
      7 C          61.2752   88.2896   10.2905 C.2     1  UNL1        0.2462
      8 O          60.4208   88.0870   11.5067 O.2     1  UNL1       -0.2701
      9 H          62.6277   89.6867    9.3341 H       1  UNL1        0.1502
     10 C          61.3377   87.2280    9.2326 C.ar    1  UNL1        0.0534
     11 C          62.6070   86.4586    9.0162 C.ar    1  UNL1        0.0054
     12 C          62.6695   85.3971    7.9583 C.ar    1  UNL1        0.0115
     13 C          61.4627   85.1050    7.1167 C.ar    1  UNL1        0.0577
     14 CL         61.5253   84.0434    6.0588 Cl      1  UNL1       -0.0822
     15 C          60.1934   85.8744    7.3331 C.ar    1  UNL1        0.0115
     16 C          60.1309   86.9359    8.3910 C.ar    1  UNL1        0.0054
     17 C          64.7455   90.4787   14.0569 C.3     1  UNL1        0.1169
     18 C          64.2453   89.3839   14.9520 C.ar    1  UNL1       -0.0003
     19 C          63.4806   89.7235   16.1970 C.ar    1  UNL1       -0.0015
     20 C          62.9804   88.6287   17.0920 C.ar    1  UNL1        0.0111
     21 C          63.2449   87.1942   16.7421 C.ar    1  UNL1        0.0577
     22 CL         62.7447   86.0993   17.6371 Cl      1  UNL1       -0.0822
     23 C          64.0095   86.8546   15.4971 C.ar    1  UNL1        0.0111
     24 C          64.5097   87.9495   14.6020 C.ar    1  UNL1       -0.0015
     25 C          65.8910   91.3418   14.4959 C.ar    1  UNL1       -0.0003
     26 C          65.8018   92.1098   15.7813 C.ar    1  UNL1       -0.0024
     27 C          66.9474   92.9729   16.2204 C.ar    1  UNL1       -0.0003
     28 C          68.1821   93.0680   15.3741 C.ar    1  UNL1       -0.0000
     29 C          68.2713   92.3000   14.0886 C.ar    1  UNL1       -0.0003
     30 C          67.1258   91.4369   13.6496 C.ar    1  UNL1       -0.0024
@<TRIPOS>BOND
     1     1     2    2
     2     2     5    1
     3     5     6    1
     4     6     7   am
     5     7     8    2
     6     7    10    1
     7    10    11   ar
     8    11    12   ar
     9    12    13   ar
    10    13    14    1
    11    13    15   ar
    12    15    16   ar
    13     2     3   am
    14     3    17    1
    15    17    25    1
    16    25    26   ar
    17    26    27   ar
    18    27    28   ar
    19    28    29   ar
    20    29    30   ar
    21    17    18    1
    22    18    19   ar
    23    19    20   ar
    24    20    21   ar
    25    21    22    1
    26    21    23   ar
    27    23    24   ar
    28    16    10   ar
    29    30    25   ar
    30    24    18   ar
    31     6     9    1
    32     3     4    1
@<TRIPOS>MOLECULE
*****
 30 32 0 0 0
SMALL
GASTEIGER

@<TRIPOS>ATOM
      1 O          59.9581   87.8254   11.5464 O.2     1  UNL1       -0.2732
      2 C          61.2368   88.5979   11.4119 C.2     1  UNL1        0.2430
      3 N          62.5027   87.8916   11.0263 N.am    1  UNL1       -0.2972
      4 H          63.3419   88.3986   10.9380 H       1  UNL1        0.1500
      5 C          61.2497   90.0766   11.6630 C.3     1  UNL1        0.1759
      6 N          62.3144   90.6809   12.5299 N.am    1  UNL1       -0.2931
      7 C          63.6303   91.0821   11.9320 C.2     1  UNL1        0.2462
      8 O          63.8815   90.8791   10.4672 O.2     1  UNL1       -0.2701
      9 H          62.1495   90.8141   13.4913 H       1  UNL1        0.1502
     10 C          64.6949   91.6863   12.7989 C.ar    1  UNL1        0.0534
     11 C          65.4480   92.8954   12.3290 C.ar    1  UNL1        0.0054
     12 C          66.5126   93.4996   13.1959 C.ar    1  UNL1        0.0115
     13 C          66.8241   92.8947   14.5327 C.ar    1  UNL1        0.0577
     14 CL         67.8888   93.4990   15.3996 Cl      1  UNL1       -0.0822
     15 C          66.0710   91.6856   15.0026 C.ar    1  UNL1        0.0115
     16 C          65.0064   91.0814   14.1357 C.ar    1  UNL1        0.0054
     17 C          62.4898   86.4128   10.7751 C.3     1  UNL1        0.1169
     18 C          62.1904   85.8878    9.4022 C.ar    1  UNL1       -0.0003
     19 C          63.2510   85.1611    8.6294 C.ar    1  UNL1       -0.0015
     20 C          62.9516   84.6362    7.2565 C.ar    1  UNL1        0.0111
     21 C          61.5917   84.8379    6.6565 C.ar    1  UNL1        0.0577
     22 CL         61.2923   84.3129    5.2836 Cl      1  UNL1       -0.0822
     23 C          60.5312   85.5645    7.4293 C.ar    1  UNL1        0.0111
     24 C          60.8306   86.0895    8.8022 C.ar    1  UNL1       -0.0015
     25 C          62.7762   85.4590   11.8968 C.ar    1  UNL1       -0.0003
     26 C          62.4496   84.0029   11.7450 C.ar    1  UNL1       -0.0024
     27 C          62.7360   83.0490   12.8667 C.ar    1  UNL1       -0.0003
     28 C          63.3492   83.5513   14.1402 C.ar    1  UNL1       -0.0000
     29 C          63.6759   85.0075   14.2919 C.ar    1  UNL1       -0.0003
     30 C          63.3894   85.9613   13.1702 C.ar    1  UNL1       -0.0024
@<TRIPOS>BOND
     1     1     2    2
     2     2     5    1
     3     5     6    1
     4     6     7   am
     5     7     8    2
     6     7    10    1
     7    10    11   ar
     8    11    12   ar
     9    12    13   ar
    10    13    14    1
    11    13    15   ar
    12    15    16   ar
    13     2     3   am
    14     3    17    1
    15    17    25    1
    16    25    26   ar
    17    26    27   ar
    18    27    28   ar
    19    28    29   ar
    20    29    30   ar
    21    17    18    1
    22    18    19   ar
    23    19    20   ar
    24    20    21   ar
    25    21    22    1
    26    21    23   ar
    27    23    24   ar
    28    16    10   ar
    29    30    25   ar
    30    24    18   ar
    31     6     9    1
    32     3     4    1
@<TRIPOS>MOLECULE
*****
 30 32 0 0 0
SMALL
GASTEIGER

@<TRIPOS>ATOM
      1 O          63.1556   88.7962   15.8101 O.2     1  UNL1       -0.2732
      2 C          63.7321   87.7088   14.9527 C.2     1  UNL1        0.2430
      3 N          63.9663   87.9508   13.4910 N.am    1  UNL1       -0.2972
      4 H          64.3446   87.2371   12.9283 H       1  UNL1        0.1500
      5 C          64.0745   86.3793   15.5570 C.3     1  UNL1        0.1759
      6 N          64.0530   85.1421   14.7090 N.am    1  UNL1       -0.2931
      7 C          62.7968   84.3297   14.5993 C.2     1  UNL1        0.2462
      8 O          61.5621   84.7545   15.3376 O.2     1  UNL1       -0.2701
      9 H          64.8633   84.8633   14.2244 H       1  UNL1        0.1502
     10 C          62.7753   83.0926   13.7513 C.ar    1  UNL1        0.0534
     11 C          63.4167   83.1014   12.3955 C.ar    1  UNL1        0.0054
     12 C          63.3952   81.8643   11.5476 C.ar    1  UNL1        0.0115
     13 C          62.7322   80.6183   12.0555 C.ar    1  UNL1        0.0577
     14 CL         62.7107   79.3811   11.2076 Cl      1  UNL1       -0.0822
     15 C          62.0907   80.6095   13.4114 C.ar    1  UNL1        0.0115
     16 C          62.1123   81.8466   14.2593 C.ar    1  UNL1        0.0054
     17 C          63.6239   89.2804   12.8867 C.3     1  UNL1        0.1169
     18 C          64.4594   90.4853   13.2027 C.ar    1  UNL1       -0.0003
     19 C          65.1760   90.5773   14.5174 C.ar    1  UNL1       -0.0015
     20 C          66.0115   91.7822   14.8334 C.ar    1  UNL1        0.0111
     21 C          66.1305   92.8953   13.8348 C.ar    1  UNL1        0.0577
     22 CL         66.9661   94.1003   14.1509 Cl      1  UNL1       -0.0822
     23 C          65.4140   92.8033   12.5203 C.ar    1  UNL1        0.0111
     24 C          64.5784   91.5983   12.2043 C.ar    1  UNL1       -0.0015
     25 C          62.4460   89.4049   11.9663 C.ar    1  UNL1       -0.0003
     26 C          61.1581   89.9851   12.4708 C.ar    1  UNL1       -0.0024
     27 C          59.9802   90.1096   11.5504 C.ar    1  UNL1       -0.0003
     28 C          60.0902   89.6539   10.1256 C.ar    1  UNL1       -0.0000
     29 C          61.3783   89.0737    9.6211 C.ar    1  UNL1       -0.0003
     30 C          62.5561   88.9492   10.5414 C.ar    1  UNL1       -0.0024
@<TRIPOS>BOND
     1     1     2    2
     2     2     5    1
     3     5     6    1
     4     6     7   am
     5     7     8    2
     6     7    10    1
     7    10    11   ar
     8    11    12   ar
     9    12    13   ar
    10    13    14    1
    11    13    15   ar
    12    15    16   ar
    13     2     3   am
    14     3    17    1
    15    17    25    1
    16    25    26   ar
    17    26    27   ar
    18    27    28   ar
    19    28    29   ar
    20    29    30   ar
    21    17    18    1
    22    18    19   ar
    23    19    20   ar
    24    20    21   ar
    25    21    22    1
    26    21    23   ar
    27    23    24   ar
    28    16    10   ar
    29    30    25   ar
    30    24    18   ar
    31     6     9    1
    32     3     4    1
@<TRIPOS>MOLECULE
*****
 30 32 0 0 0
SMALL
GASTEIGER

@<TRIPOS>ATOM
      1 O          65.3288   90.2102   14.1572 O.2     1  UNL1       -0.2732
      2 C          64.2363   90.7659   13.2927 C.2     1  UNL1        0.2430
      3 N          64.4649   92.0268   12.5129 N.am    1  UNL1       -0.2972
      4 H          63.7478   92.3915   11.9455 H       1  UNL1        0.1500
      5 C          62.9151   90.0608   13.2078 C.3     1  UNL1        0.1759
      6 N          62.6876   89.0184   12.1535 N.am    1  UNL1       -0.2931
      7 C          61.6279   89.2238   11.1119 C.2     1  UNL1        0.2462
      8 O          60.7957   90.4717   11.1246 O.2     1  UNL1       -0.2701
      9 H          63.2338   88.1993   12.1452 H       1  UNL1        0.1502
     10 C          61.4004   88.1813   10.0576 C.ar    1  UNL1        0.0534
     11 C          62.3616   87.0389    9.9127 C.ar    1  UNL1        0.0054
     12 C          62.1341   85.9965    8.8584 C.ar    1  UNL1        0.0115
     13 C          60.9454   86.0965    7.9490 C.ar    1  UNL1        0.0577
     14 CL         60.7179   85.0540    6.8947 Cl      1  UNL1       -0.0822
     15 C          59.9842   87.2388    8.0939 C.ar    1  UNL1        0.0115
     16 C          60.2117   88.2813    9.1482 C.ar    1  UNL1        0.0054
     17 C          65.7861   92.7319   12.5977 C.3     1  UNL1        0.1169
     18 C          66.2490   93.5964   11.4627 C.ar    1  UNL1       -0.0003
     19 C          66.8782   92.9720   10.2525 C.ar    1  UNL1       -0.0015
     20 C          67.3411   93.8365    9.1175 C.ar    1  UNL1        0.0111
     21 C          67.1748   95.3255    9.1926 C.ar    1  UNL1        0.0577
     22 CL         67.6378   96.1900    8.0575 Cl      1  UNL1       -0.0822
     23 C          66.5457   95.9498   10.4027 C.ar    1  UNL1        0.0111
     24 C          66.0828   95.0853   11.5377 C.ar    1  UNL1       -0.0015
     25 C          66.6444   92.5726   13.8175 C.ar    1  UNL1       -0.0003
     26 C          68.0193   91.9854   13.6956 C.ar    1  UNL1       -0.0024
     27 C          68.8776   91.8260   14.9155 C.ar    1  UNL1       -0.0003
     28 C          68.3610   92.2538   16.2571 C.ar    1  UNL1       -0.0000
     29 C          66.9860   92.8410   16.3790 C.ar    1  UNL1       -0.0003
     30 C          66.1278   93.0003   15.1592 C.ar    1  UNL1       -0.0024
@<TRIPOS>BOND
     1     1     2    2
     2     2     5    1
     3     5     6    1
     4     6     7   am
     5     7     8    2
     6     7    10    1
     7    10    11   ar
     8    11    12   ar
     9    12    13   ar
    10    13    14    1
    11    13    15   ar
    12    15    16   ar
    13     2     3   am
    14     3    17    1
    15    17    25    1
    16    25    26   ar
    17    26    27   ar
    18    27    28   ar
    19    28    29   ar
    20    29    30   ar
    21    17    18    1
    22    18    19   ar
    23    19    20   ar
    24    20    21   ar
    25    21    22    1
    26    21    23   ar
    27    23    24   ar
    28    16    10   ar
    29    30    25   ar
    30    24    18   ar
    31     6     9    1
    32     3     4    1
@<TRIPOS>MOLECULE
*****
 30 32 0 0 0
SMALL
GASTEIGER

@<TRIPOS>ATOM
      1 O          60.9687   89.0846   12.3371 O.2     1  UNL1       -0.2732
      2 C          62.3573   89.3544   11.8380 C.2     1  UNL1        0.2430
      3 N          62.9633   88.4678   10.7908 N.am    1  UNL1       -0.2972
      4 H          63.8747   88.6449   10.4632 H       1  UNL1        0.1500
      5 C          63.1397   90.5109   12.3859 C.3     1  UNL1        0.1759
      6 N          63.8985   91.4109   11.4562 N.am    1  UNL1       -0.2931
      7 C          64.9794   92.3026   11.9914 C.2     1  UNL1        0.2462
      8 O          65.3016   92.2943   13.4564 O.2     1  UNL1       -0.2701
      9 H          63.6870   91.4163   10.4947 H       1  UNL1        0.1502
     10 C          65.7381   93.2026   11.0617 C.ar    1  UNL1        0.0534
     11 C          66.8418   92.6451   10.2126 C.ar    1  UNL1        0.0054
     12 C          67.6005   93.5451    9.2830 C.ar    1  UNL1        0.0115
     13 C          67.2555   95.0026    9.2023 C.ar    1  UNL1        0.0577
     14 CL         68.0142   95.9026    8.2726 Cl      1  UNL1       -0.0822
     15 C          66.1517   95.5602   10.0514 C.ar    1  UNL1        0.0115
     16 C          65.3931   94.6601   10.9811 C.ar    1  UNL1        0.0054
     17 C          62.1809   87.3113   10.2428 C.3     1  UNL1        0.1169
     18 C          62.5127   85.9120   10.6692 C.ar    1  UNL1       -0.0003
     19 C          62.2156   85.4643   12.0697 C.ar    1  UNL1       -0.0015
     20 C          62.5474   84.0650   12.4961 C.ar    1  UNL1        0.0111
     21 C          63.1763   83.1133   11.5220 C.ar    1  UNL1        0.0577
     22 CL         63.5081   81.7140   11.9484 Cl      1  UNL1       -0.0822
     23 C          63.4734   83.5610   10.1215 C.ar    1  UNL1        0.0111
     24 C          63.1415   84.9603    9.6951 C.ar    1  UNL1       -0.0015
     25 C          61.0666   87.5541    9.2684 C.ar    1  UNL1       -0.0003
     26 C          60.7117   88.9557    8.8691 C.ar    1  UNL1       -0.0024
     27 C          59.5975   89.1986    7.8946 C.ar    1  UNL1       -0.0003
     28 C          58.8381   88.0398    7.3195 C.ar    1  UNL1       -0.0000
     29 C          59.1931   86.6382    7.7189 C.ar    1  UNL1       -0.0003
     30 C          60.3073   86.3953    8.6933 C.ar    1  UNL1       -0.0024
@<TRIPOS>BOND
     1     1     2    2
     2     2     5    1
     3     5     6    1
     4     6     7   am
     5     7     8    2
     6     7    10    1
     7    10    11   ar
     8    11    12   ar
     9    12    13   ar
    10    13    14    1
    11    13    15   ar
    12    15    16   ar
    13     2     3   am
    14     3    17    1
    15    17    25    1
    16    25    26   ar
    17    26    27   ar
    18    27    28   ar
    19    28    29   ar
    20    29    30   ar
    21    17    18    1
    22    18    19   ar
    23    19    20   ar
    24    20    21   ar
    25    21    22    1
    26    21    23   ar
    27    23    24   ar
    28    16    10   ar
    29    30    25   ar
    30    24    18   ar
    31     6     9    1
    32     3     4    1
