@<TRIPOS>MOLECULE
*****
 35 39 0 0 0
SMALL
GASTEIGER

@<TRIPOS>ATOM
      1 C          60.8183   88.3756    9.3244 C.2     1  UNL1        0.4048
      2 O          60.2717   88.7476    7.9780 O.2     1  UNL1       -0.2262
      3 N          61.7755   89.2938   10.0250 N.am    1  UNL1       -0.2443
      4 C          62.2745   90.6098    9.5064 C.3     1  UNL1        0.0985
      5 C          63.2090   91.1866   10.5281 C.3     1  UNL1        0.0429
      6 C          63.2876   90.2270   11.6783 C.3     1  UNL1        0.0920
      7 C          62.4017   89.0572   11.3674 C.3     1  UNL1        0.1162
      8 N          64.1082   90.4057   12.9212 N.pl3   1  UNL1       -0.3180
      9 H          64.8278   91.0771   12.9436 H       1  UNL1        0.1482
     10 C          63.8322   89.5614   14.1300 C.ar    1  UNL1        0.1285
     11 C          64.2535   88.1220   14.1515 C.ar    1  UNL1        0.0340
     12 C          63.9776   87.2778   15.3602 C.ar    1  UNL1        0.0083
     13 C          63.2803   87.8730   16.5474 C.ar    1  UNL1        0.0906
     14 C          62.8590   89.3124   16.5259 C.ar    1  UNL1        0.1041
     15 N          63.1350   90.1567   15.3171 N.ar    1  UNL1       -0.2294
     16 C          63.0044   87.0287   17.7562 C.3     1  UNL1        0.4200
     17 F          62.7284   86.1845   18.9650 F       1  UNL1       -0.1658
     18 F          63.1134   88.2435   18.6295 F       1  UNL1       -0.1658
     19 F          62.8954   85.8140   16.8829 F       1  UNL1       -0.1658
     20 O          60.4079   87.0855    9.9702 O.3     1  UNL1       -0.4383
     21 C          61.3225   86.2841    9.3958 C.3     1  UNL1        0.0688
     22 C          62.0272   85.6170   10.5396 C.3     1  UNL1        0.0086
     23 C          63.1306   84.6370   10.2717 C.3     1  UNL1        0.0007
     24 C          63.5294   84.3240    8.8599 C.3     1  UNL1        0.0036
     25 C          62.8248   84.9911    7.7161 C.3     1  UNL1        0.0407
     26 C          61.7213   85.9712    7.9840 C.3     1  UNL1        0.0122
     27 C          61.4518   86.1345   10.4759 C.3     1  UNL1        0.1702
     28 C          61.6284   85.9300   11.9513 C.3     1  UNL1        0.0407
     29 C          62.7318   84.9499   11.6834 C.3     1  UNL1        0.0036
     30 C          60.9237   86.5971   10.8075 C.3     1  UNL1        0.0122
     31 N          59.0631   87.3704    8.7136 N.am    1  UNL1       -0.3288
     32 C          60.2190   87.2643    9.6637 C.2     1  UNL1        0.2184
     33 O          59.9544   88.2640   10.7501 O.2     1  UNL1       -0.2754
     34 H          58.3389   88.0136    8.8895 H       1  UNL1        0.1449
     35 H          59.0287   86.7967    7.9143 H       1  UNL1        0.1449
@<TRIPOS>BOND
     1    31    32   am
     2    32    33    2
     3    21    32    1
     4    21    22    1
     5    22    23    1
     6    23    24    1
     7    24    25    1
     8    25    26    1
     9    25    27    1
    10    27    20    1
    11    20     1    1
    12     1     2    2
    13     1     3   am
    14     3     4    1
    15     4     5    1
    16     5     6    1
    17     6     8    1
    18     8    10    1
    19    10    11   ar
    20    11    12   ar
    21    12    13   ar
    22    13    16    1
    23    16    17    1
    24    16    18    1
    25    16    19    1
    26    13    14   ar
    27    14    15   ar
    28     6     7    1
    29    27    28    1
    30    28    29    1
    31    28    30    1
    32    26    21    1
    33     7     3    1
    34    30    21    1
    35    29    23    1
    36    15    10   ar
    37    31    34    1
    38    31    35    1
    39     8     9    1
@<TRIPOS>MOLECULE
*****
 35 39 0 0 0
SMALL
GASTEIGER

@<TRIPOS>ATOM
      1 C          60.7325   89.7019   10.6780 C.2     1  UNL1        0.4048
      2 O          59.5235   90.5124   10.3158 O.2     1  UNL1       -0.2262
      3 N          61.0645   88.4621    9.9017 N.am    1  UNL1       -0.2443
      4 C          60.2852   87.9113    8.7444 C.3     1  UNL1        0.0985
      5 C          60.9731   86.6642    8.2738 C.3     1  UNL1        0.0429
      6 C          62.1776   86.4442    9.1403 C.3     1  UNL1        0.0920
      7 C          62.2341   87.5554   10.1464 C.3     1  UNL1        0.1162
      8 N          63.1542   85.3118    9.0216 N.pl3   1  UNL1       -0.3180
      9 H          63.7593   85.2629    8.2466 H       1  UNL1        0.1482
     10 C          63.2087   84.2540   10.0837 C.ar    1  UNL1        0.1285
     11 C          63.9675   82.9835    9.8385 C.ar    1  UNL1        0.0340
     12 C          64.0220   81.9257   10.9005 C.ar    1  UNL1        0.0083
     13 C          63.3178   82.1383   12.2078 C.ar    1  UNL1        0.0906
     14 C          62.5591   83.4088   12.4529 C.ar    1  UNL1        0.1041
     15 N          62.5045   84.4667   11.3908 N.ar    1  UNL1       -0.2294
     16 C          63.3724   81.0805   13.2699 C.3     1  UNL1        0.4200
     17 F          63.4269   80.0226   14.3319 F       1  UNL1       -0.1658
     18 F          62.8285   80.0761   12.2974 F       1  UNL1       -0.1658
     19 F          63.9162   82.0848   14.2423 F       1  UNL1       -0.1658
     20 O          61.6096   90.1313   11.8165 O.3     1  UNL1       -0.4383
     21 C          62.7143   90.4071   12.5324 C.3     1  UNL1        0.0688
     22 C          63.6091   91.1583   11.5918 C.3     1  UNL1        0.0086
     23 C          64.9534   91.6354   12.0556 C.3     1  UNL1        0.0007
     24 C          65.4029   91.3611   13.4602 C.3     1  UNL1        0.0036
     25 C          64.5081   90.6098   14.4008 C.3     1  UNL1        0.0407
     26 C          63.1638   90.1328   13.9370 C.3     1  UNL1        0.0122
     27 C          62.9024   90.8405   11.5412 C.3     1  UNL1        0.1702
     28 C          63.1595   91.4326   10.1873 C.3     1  UNL1        0.0407
     29 C          64.5038   91.9096   10.6511 C.3     1  UNL1        0.0036
     30 C          62.2647   90.6813   11.1279 C.3     1  UNL1        0.0122
     31 N          60.3331   90.9208   11.6289 N.am    1  UNL1       -0.3288
     32 C          61.3699   89.9300   12.0686 C.2     1  UNL1        0.2184
     33 O          60.7389   88.5775   11.9190 O.2     1  UNL1       -0.2754
     34 H          59.4508   90.6077   11.3245 H       1  UNL1        0.1449
     35 H          60.5350   91.8843   11.6448 H       1  UNL1        0.1449
@<TRIPOS>BOND
     1    31    32   am
     2    32    33    2
     3    21    32    1
     4    21    22    1
     5    22    23    1
     6    23    24    1
     7    24    25    1
     8    25    26    1
     9    25    27    1
    10    27    20    1
    11    20     1    1
    12     1     2    2
    13     1     3   am
    14     3     4    1
    15     4     5    1
    16     5     6    1
    17     6     8    1
    18     8    10    1
    19    10    11   ar
    20    11    12   ar
    21    12    13   ar
    22    13    16    1
    23    16    17    1
    24    16    18    1
    25    16    19    1
    26    13    14   ar
    27    14    15   ar
    28     6     7    1
    29    27    28    1
    30    28    29    1
    31    28    30    1
    32    26    21    1
    33     7     3    1
    34    30    21    1
    35    29    23    1
    36    15    10   ar
    37    31    34    1
    38    31    35    1
    39     8     9    1
@<TRIPOS>MOLECULE
*****
 35 39 0 0 0
SMALL
GASTEIGER

@<TRIPOS>ATOM
      1 C          63.7033   90.4454   15.5816 C.2     1  UNL1        0.4048
      2 O          63.1274   91.1198   16.7913 O.2     1  UNL1       -0.2262
      3 N          63.8745   88.9553   15.5638 N.am    1  UNL1       -0.2443
      4 C          63.5171   88.0134   16.6751 C.3     1  UNL1        0.0985
      5 C          63.8549   86.6215   16.2297 C.3     1  UNL1        0.0429
      6 C          64.4211   86.7031   14.8431 C.3     1  UNL1        0.0920
      7 C          64.4332   88.1455   14.4315 C.3     1  UNL1        0.1162
      8 N          64.8924   85.5456   14.0136 N.pl3   1  UNL1       -0.3180
      9 H          65.7407   85.6083   13.5179 H       1  UNL1        0.1482
     10 C          64.0713   84.2925   13.9393 C.ar    1  UNL1        0.1285
     11 C          62.8646   84.1335   14.8160 C.ar    1  UNL1        0.0340
     12 C          62.0435   82.8805   14.7418 C.ar    1  UNL1        0.0083
     13 C          62.4291   81.7864   13.7909 C.ar    1  UNL1        0.0906
     14 C          63.6357   81.9454   12.9142 C.ar    1  UNL1        0.1041
     15 N          64.4569   83.1985   12.9884 N.ar    1  UNL1       -0.2294
     16 C          61.6079   80.5333   13.7167 C.3     1  UNL1        0.4200
     17 F          60.7868   79.2801   13.6424 F       1  UNL1       -0.1658
     18 F          60.5220   81.1978   14.5099 F       1  UNL1       -0.1658
     19 F          62.6938   79.8687   12.9234 F       1  UNL1       -0.1658
     20 O          64.1079   91.2612   14.3896 O.3     1  UNL1       -0.4383
     21 C          64.8240   91.6252   13.3110 C.3     1  UNL1        0.0688
     22 C          66.2421   91.7010   13.7939 C.3     1  UNL1        0.0086
     23 C          67.3381   92.0854   12.8447 C.3     1  UNL1        0.0007
     24 C          67.0160   92.3939   11.4125 C.3     1  UNL1        0.0036
     25 C          65.5979   92.3181   10.9296 C.3     1  UNL1        0.0407
     26 C          64.5019   91.9337   11.8788 C.3     1  UNL1        0.0122
     27 C          65.5595   91.5269   14.1204 C.3     1  UNL1        0.1702
     28 C          66.5642   91.3925   15.2261 C.3     1  UNL1        0.0407
     29 C          67.6601   91.7769   14.2769 C.3     1  UNL1        0.0036
     30 C          65.1461   91.3167   14.7431 C.3     1  UNL1        0.0122
     31 N          62.6663   90.2735   13.8278 N.am    1  UNL1       -0.3288
     32 C          63.7279   91.2408   14.2602 C.2     1  UNL1        0.2184
     33 O          63.3932   91.6177   15.6729 O.2     1  UNL1       -0.2754
     34 H          61.9469   90.0212   14.4508 H       1  UNL1        0.1449
     35 H          62.6888   89.8908   12.9210 H       1  UNL1        0.1449
@<TRIPOS>BOND
     1    31    32   am
     2    32    33    2
     3    21    32    1
     4    21    22    1
     5    22    23    1
     6    23    24    1
     7    24    25    1
     8    25    26    1
     9    25    27    1
    10    27    20    1
    11    20     1    1
    12     1     2    2
    13     1     3   am
    14     3     4    1
    15     4     5    1
    16     5     6    1
    17     6     8    1
    18     8    10    1
    19    10    11   ar
    20    11    12   ar
    21    12    13   ar
    22    13    16    1
    23    16    17    1
    24    16    18    1
    25    16    19    1
    26    13    14   ar
    27    14    15   ar
    28     6     7    1
    29    27    28    1
    30    28    29    1
    31    28    30    1
    32    26    21    1
    33     7     3    1
    34    30    21    1
    35    29    23    1
    36    15    10   ar
    37    31    34    1
    38    31    35    1
    39     8     9    1
@<TRIPOS>MOLECULE
*****
 35 39 0 0 0
SMALL
GASTEIGER

@<TRIPOS>ATOM
      1 C          61.4435   89.8413   11.9608 C.2     1  UNL1        0.4048
      2 O          60.2594   89.2928   12.7003 O.2     1  UNL1       -0.2262
      3 N          62.6666   90.2700   12.7159 N.am    1  UNL1       -0.2443
      4 C          62.8507   90.2098   14.2033 C.3     1  UNL1        0.0985
      5 C          64.2183   90.7367   14.5228 C.3     1  UNL1        0.0429
      6 C          64.8795   91.1225   13.2328 C.3     1  UNL1        0.0920
      7 C          63.9205   90.8341   12.1161 C.3     1  UNL1        0.1162
      8 N          66.2576   91.6961   13.0855 N.pl3   1  UNL1       -0.3180
      9 H          66.9790   91.4051   13.6889 H       1  UNL1        0.1482
     10 C          66.5366   92.7131   12.0187 C.ar    1  UNL1        0.1285
     11 C          67.1685   92.2898   10.7258 C.ar    1  UNL1        0.0340
     12 C          67.4475   93.3067    9.6591 C.ar    1  UNL1        0.0083
     13 C          67.0946   94.7469    9.8852 C.ar    1  UNL1        0.0906
     14 C          66.4627   95.1702   11.1781 C.ar    1  UNL1        0.1041
     15 N          66.1837   94.1533   12.2449 N.ar    1  UNL1       -0.2294
     16 C          67.3736   95.7639    8.8185 C.3     1  UNL1        0.4200
     17 F          67.6526   96.7809    7.7517 F       1  UNL1       -0.1658
     18 F          67.4162   94.6731    7.7897 F       1  UNL1       -0.1658
     19 F          67.3311   96.8547    9.8472 F       1  UNL1       -0.1658
     20 O          61.4045   89.9610   10.4661 O.3     1  UNL1       -0.4383
     21 C          61.6011   88.6312   10.5058 C.3     1  UNL1        0.0688
     22 C          60.8353   88.0904    9.3349 C.3     1  UNL1        0.0086
     23 C          60.8268   86.6157    9.0609 C.3     1  UNL1        0.0007
     24 C          61.5841   85.6818    9.9577 C.3     1  UNL1        0.0036
     25 C          62.3499   86.2226   11.1286 C.3     1  UNL1        0.0407
     26 C          62.3584   87.6973   11.4026 C.3     1  UNL1        0.0122
     27 C          60.9574   88.7974    9.6318 C.3     1  UNL1        0.1702
     28 C          60.0780   89.0243    8.4381 C.3     1  UNL1        0.0407
     29 C          60.0695   87.5496    8.1640 C.3     1  UNL1        0.0036
     30 C          60.8438   89.5651    9.6089 C.3     1  UNL1        0.0122
     31 N          60.4800   90.7339   11.5410 N.am    1  UNL1       -0.3288
     32 C          61.6097   90.1060   10.7799 C.2     1  UNL1        0.2184
     33 O          62.5576   91.2212   10.4519 O.2     1  UNL1       -0.2754
     34 H          60.4856   91.7018   11.7209 H       1  UNL1        0.1449
     35 H          59.7329   90.1782   11.8606 H       1  UNL1        0.1449
@<TRIPOS>BOND
     1    31    32   am
     2    32    33    2
     3    21    32    1
     4    21    22    1
     5    22    23    1
     6    23    24    1
     7    24    25    1
     8    25    26    1
     9    25    27    1
    10    27    20    1
    11    20     1    1
    12     1     2    2
    13     1     3   am
    14     3     4    1
    15     4     5    1
    16     5     6    1
    17     6     8    1
    18     8    10    1
    19    10    11   ar
    20    11    12   ar
    21    12    13   ar
    22    13    16    1
    23    16    17    1
    24    16    18    1
    25    16    19    1
    26    13    14   ar
    27    14    15   ar
    28     6     7    1
    29    27    28    1
    30    28    29    1
    31    28    30    1
    32    26    21    1
    33     7     3    1
    34    30    21    1
    35    29    23    1
    36    15    10   ar
    37    31    34    1
    38    31    35    1
    39     8     9    1
@<TRIPOS>MOLECULE
*****
 35 39 0 0 0
SMALL
GASTEIGER

@<TRIPOS>ATOM
      1 C          63.6531   83.1432   11.9685 C.2     1  UNL1        0.4048
      2 O          64.1226   81.9915   11.1301 O.2     1  UNL1       -0.2262
      3 N          63.0849   84.3663   11.3119 N.am    1  UNL1       -0.2443
      4 C          62.9241   84.5806    9.8360 C.3     1  UNL1        0.0985
      5 C          62.3175   85.9366    9.6278 C.3     1  UNL1        0.0429
      6 C          62.1034   86.5604   10.9751 C.3     1  UNL1        0.0920
      7 C          62.5777   85.5899   12.0158 C.3     1  UNL1        0.1162
      8 N          61.5179   87.9166   11.2358 N.pl3   1  UNL1       -0.3180
      9 H          60.5409   88.0375   11.2445 H       1  UNL1        0.1482
     10 C          62.4209   89.0885   11.4833 C.ar    1  UNL1        0.1285
     11 C          62.6617   90.0926   10.3953 C.ar    1  UNL1        0.0340
     12 C          63.5647   91.2645   10.6428 C.ar    1  UNL1        0.0083
     13 C          64.2269   91.4322   11.9782 C.ar    1  UNL1        0.0906
     14 C          63.9860   90.4281   13.0662 C.ar    1  UNL1        0.1041
     15 N          63.0830   89.2562   12.8187 N.ar    1  UNL1       -0.2294
     16 C          65.1299   92.6041   12.2257 C.3     1  UNL1        0.4200
     17 F          66.0329   93.7760   12.4732 F       1  UNL1       -0.1658
     18 F          65.2735   92.1905   13.6604 F       1  UNL1       -0.1658
     19 F          64.9864   93.0177   10.7910 F       1  UNL1       -0.1658
     20 O          63.7518   83.0719   13.4635 O.3     1  UNL1       -0.4383
     21 C          63.3462   83.8682   14.4685 C.3     1  UNL1        0.0688
     22 C          64.5010   84.7911   14.7227 C.3     1  UNL1        0.0086
     23 C          64.4049   85.8347   15.7958 C.3     1  UNL1        0.0007
     24 C          63.1539   85.9555   16.6147 C.3     1  UNL1        0.0036
     25 C          61.9991   85.0326   16.3605 C.3     1  UNL1        0.0407
     26 C          62.0953   83.9890   15.2874 C.3     1  UNL1        0.0122
     27 C          64.3630   84.2072   14.2298 C.3     1  UNL1        0.1702
     28 C          65.7519   84.6704   13.9039 C.3     1  UNL1        0.0407
     29 C          65.6558   85.7140   14.9770 C.3     1  UNL1        0.0036
     30 C          64.5971   83.7475   13.6496 C.3     1  UNL1        0.0122
     31 N          62.1940   82.2434   12.8005 N.am    1  UNL1       -0.3288
     32 C          63.4423   82.8246   13.3954 C.2     1  UNL1        0.2184
     33 O          64.5858   82.1489   12.6984 O.2     1  UNL1       -0.2754
     34 H          62.2571   81.5584   12.0962 H       1  UNL1        0.1449
     35 H          61.3116   82.5469   13.1144 H       1  UNL1        0.1449
@<TRIPOS>BOND
     1    31    32   am
     2    32    33    2
     3    21    32    1
     4    21    22    1
     5    22    23    1
     6    23    24    1
     7    24    25    1
     8    25    26    1
     9    25    27    1
    10    27    20    1
    11    20     1    1
    12     1     2    2
    13     1     3   am
    14     3     4    1
    15     4     5    1
    16     5     6    1
    17     6     8    1
    18     8    10    1
    19    10    11   ar
    20    11    12   ar
    21    12    13   ar
    22    13    16    1
    23    16    17    1
    24    16    18    1
    25    16    19    1
    26    13    14   ar
    27    14    15   ar
    28     6     7    1
    29    27    28    1
    30    28    29    1
    31    28    30    1
    32    26    21    1
    33     7     3    1
    34    30    21    1
    35    29    23    1
    36    15    10   ar
    37    31    34    1
    38    31    35    1
    39     8     9    1
@<TRIPOS>MOLECULE
*****
 35 39 0 0 0
SMALL
GASTEIGER

@<TRIPOS>ATOM
      1 C          61.3036   88.1677   10.0996 C.2     1  UNL1        0.4048
      2 O          61.1587   88.5346    8.6524 O.2     1  UNL1       -0.2262
      3 N          61.9284   89.1359   11.0599 N.am    1  UNL1       -0.2443
      4 C          62.4520   90.5001   10.7210 C.3     1  UNL1        0.0985
      5 C          62.9865   91.1173   11.9793 C.3     1  UNL1        0.0429
      6 C          62.7931   90.1346   13.0959 C.3     1  UNL1        0.0920
      7 C          62.1392   88.9101   12.5277 C.3     1  UNL1        0.1162
      8 N          63.1849   90.3403   14.5292 N.pl3   1  UNL1       -0.3180
      9 H          62.6113   89.9945   15.2508 H       1  UNL1        0.1482
     10 C          64.4506   91.0728   14.8630 C.ar    1  UNL1        0.1285
     11 C          65.6618   90.9125   13.9927 C.ar    1  UNL1        0.0340
     12 C          66.9274   91.6449   14.3266 C.ar    1  UNL1        0.0083
     13 C          66.9820   92.5377   15.5307 C.ar    1  UNL1        0.0906
     14 C          65.7709   92.6979   16.4010 C.ar    1  UNL1        0.1041
     15 N          64.5052   91.9655   16.0672 N.ar    1  UNL1       -0.2294
     16 C          68.2477   93.2701   15.8646 C.3     1  UNL1        0.4200
     17 F          69.5135   94.0026   16.1984 F       1  UNL1       -0.1658
     18 F          68.7165   92.0937   16.6685 F       1  UNL1       -0.1658
     19 F          67.7790   94.4466   15.0607 F       1  UNL1       -0.1658
     20 O          60.8238   86.8325   10.5864 O.3     1  UNL1       -0.4383
     21 C          61.6771   86.0662    9.8839 C.3     1  UNL1        0.0688
     22 C          62.3566   85.2043   10.9063 C.3     1  UNL1        0.0086
     23 C          63.3919   84.2071   10.4777 C.3     1  UNL1        0.0007
     24 C          63.7476   84.0718    9.0268 C.3     1  UNL1        0.0036
     25 C          63.0681   84.9337    8.0044 C.3     1  UNL1        0.0407
     26 C          62.0328   85.9309    8.4330 C.3     1  UNL1        0.0122
     27 C          61.8139   85.7591   10.9293 C.3     1  UNL1        0.1702
     28 C          62.0009   85.3396   12.3572 C.3     1  UNL1        0.0407
     29 C          63.0362   84.3424   11.9286 C.3     1  UNL1        0.0036
     30 C          61.3213   86.2015   11.3348 C.3     1  UNL1        0.0122
     31 N          59.6037   87.5332    9.3368 N.am    1  UNL1       -0.3288
     32 C          60.6417   87.0635   10.3125 C.2     1  UNL1        0.2184
     33 O          60.3548   87.7802   11.5985 O.2     1  UNL1       -0.2754
     34 H          58.9242   88.1877    9.6181 H       1  UNL1        0.1449
     35 H          59.6019   87.1870    8.4152 H       1  UNL1        0.1449
@<TRIPOS>BOND
     1    31    32   am
     2    32    33    2
     3    21    32    1
     4    21    22    1
     5    22    23    1
     6    23    24    1
     7    24    25    1
     8    25    26    1
     9    25    27    1
    10    27    20    1
    11    20     1    1
    12     1     2    2
    13     1     3   am
    14     3     4    1
    15     4     5    1
    16     5     6    1
    17     6     8    1
    18     8    10    1
    19    10    11   ar
    20    11    12   ar
    21    12    13   ar
    22    13    16    1
    23    16    17    1
    24    16    18    1
    25    16    19    1
    26    13    14   ar
    27    14    15   ar
    28     6     7    1
    29    27    28    1
    30    28    29    1
    31    28    30    1
    32    26    21    1
    33     7     3    1
    34    30    21    1
    35    29    23    1
    36    15    10   ar
    37    31    34    1
    38    31    35    1
    39     8     9    1
@<TRIPOS>MOLECULE
*****
 35 39 0 0 0
SMALL
GASTEIGER

@<TRIPOS>ATOM
      1 C          60.7961   88.3033    9.2468 C.2     1  UNL1        0.4048
      2 O          60.0329   88.8492    8.0766 O.2     1  UNL1       -0.2262
      3 N          61.6866   89.2058   10.0485 N.am    1  UNL1       -0.2443
      4 C          61.9129   90.6678    9.8009 C.3     1  UNL1        0.0985
      5 C          62.8733   91.1703   10.8379 C.3     1  UNL1        0.0429
      6 C          63.2405   90.0188   11.7263 C.3     1  UNL1        0.0920
      7 C          62.5070   88.8047   11.2384 C.3     1  UNL1        0.1162
      8 N          64.1767   90.0721   12.8971 N.pl3   1  UNL1       -0.3180
      9 H          64.9930   90.6204   12.8500 H       1  UNL1        0.1482
     10 C          63.8691   89.2900   14.1396 C.ar    1  UNL1        0.1285
     11 C          64.2983   87.8570   14.2492 C.ar    1  UNL1        0.0340
     12 C          63.9908   87.0749   15.4916 C.ar    1  UNL1        0.0083
     13 C          63.2540   87.7259   16.6245 C.ar    1  UNL1        0.0906
     14 C          62.8247   89.1589   16.5148 C.ar    1  UNL1        0.1041
     15 N          63.1323   89.9410   15.2723 N.ar    1  UNL1       -0.2294
     16 C          62.9464   86.9438   17.8670 C.3     1  UNL1        0.4200
     17 F          62.6388   86.1617   19.1095 F       1  UNL1       -0.1658
     18 F          62.7977   85.6975   17.0456 F       1  UNL1       -0.1658
     19 F          63.0951   88.1901   18.6883 F       1  UNL1       -0.1658
     20 O          60.6689   86.8549    9.6154 O.3     1  UNL1       -0.4383
     21 C          61.4718   86.0607   10.3457 C.3     1  UNL1        0.0688
     22 C          62.3624   85.3844    9.3460 C.3     1  UNL1        0.0086
     23 C          63.4039   84.4090    9.8085 C.3     1  UNL1        0.0007
     24 C          63.5549   84.1100   11.2706 C.3     1  UNL1        0.0036
     25 C          62.6643   84.7864   12.2703 C.3     1  UNL1        0.0407
     26 C          61.6228   85.7617   11.8078 C.3     1  UNL1        0.0122
     27 C          61.7844   85.9013    9.3052 C.3     1  UNL1        0.1702
     28 C          62.2114   85.6834    7.8839 C.3     1  UNL1        0.0407
     29 C          63.2529   84.7080    8.3463 C.3     1  UNL1        0.0036
     30 C          61.3209   86.3597    8.8836 C.3     1  UNL1        0.0122
     31 N          59.7631   87.9458   10.8719 N.am    1  UNL1       -0.3288
     32 C          60.4303   87.0361    9.8833 C.2     1  UNL1        0.2184
     33 O          59.8284   87.3632    8.5489 O.2     1  UNL1       -0.2754
     34 H          59.0795   88.5859   10.5684 H       1  UNL1        0.1449
     35 H          60.0088   87.9026   11.8243 H       1  UNL1        0.1449
@<TRIPOS>BOND
     1    31    32   am
     2    32    33    2
     3    21    32    1
     4    21    22    1
     5    22    23    1
     6    23    24    1
     7    24    25    1
     8    25    26    1
     9    25    27    1
    10    27    20    1
    11    20     1    1
    12     1     2    2
    13     1     3   am
    14     3     4    1
    15     4     5    1
    16     5     6    1
    17     6     8    1
    18     8    10    1
    19    10    11   ar
    20    11    12   ar
    21    12    13   ar
    22    13    16    1
    23    16    17    1
    24    16    18    1
    25    16    19    1
    26    13    14   ar
    27    14    15   ar
    28     6     7    1
    29    27    28    1
    30    28    29    1
    31    28    30    1
    32    26    21    1
    33     7     3    1
    34    30    21    1
    35    29    23    1
    36    15    10   ar
    37    31    34    1
    38    31    35    1
    39     8     9    1
@<TRIPOS>MOLECULE
*****
 35 39 0 0 0
SMALL
GASTEIGER

@<TRIPOS>ATOM
      1 C          63.6239   83.8896   15.0040 C.2     1  UNL1        0.4048
      2 O          62.9611   82.6067   15.4096 O.2     1  UNL1       -0.2262
      3 N          63.2932   85.1644   15.7220 N.am    1  UNL1       -0.2443
      4 C          62.3250   85.3106   16.8584 C.3     1  UNL1        0.0985
      5 C          62.3060   86.7533   17.2684 C.3     1  UNL1        0.0429
      6 C          63.2624   87.4988   16.3855 C.3     1  UNL1        0.0920
      7 C          63.8725   86.5168   15.4298 C.3     1  UNL1        0.1162
      8 N          63.5570   88.9683   16.4475 N.pl3   1  UNL1       -0.3180
      9 H          63.5800   89.4295   17.3169 H       1  UNL1        0.1482
     10 C          63.8165   89.7351   15.1846 C.ar    1  UNL1        0.1285
     11 C          65.0548   90.5718   15.0563 C.ar    1  UNL1        0.0340
     12 C          65.3143   91.3386   13.7936 C.ar    1  UNL1        0.0083
     13 C          64.3355   91.2686   12.6591 C.ar    1  UNL1        0.0906
     14 C          63.0972   90.4319   12.7874 C.ar    1  UNL1        0.1041
     15 N          62.8377   89.6651   14.0502 N.ar    1  UNL1       -0.2294
     16 C          64.5950   92.0354   11.3962 C.3     1  UNL1        0.4200
     17 F          64.8546   92.8022   10.1334 F       1  UNL1       -0.1658
     18 F          65.2932   93.1017   12.1872 F       1  UNL1       -0.1658
     19 F          63.8969   90.9691   10.6053 F       1  UNL1       -0.1658
     20 O          64.6176   83.8978   13.8804 O.3     1  UNL1       -0.4383
     21 C          63.8892   84.5055   12.9270 C.3     1  UNL1        0.0688
     22 C          63.8671   83.5390   11.7801 C.3     1  UNL1        0.0086
     23 C          63.1329   83.8877   10.5195 C.3     1  UNL1        0.0007
     24 C          62.4206   85.2029   10.4058 C.3     1  UNL1        0.0036
     25 C          62.4426   86.1694   11.5526 C.3     1  UNL1        0.0407
     26 C          63.1769   85.8207   12.8133 C.3     1  UNL1        0.0122
     27 C          64.1809   83.5411   12.4904 C.3     1  UNL1        0.1702
     28 C          64.5794   82.2238   11.8939 C.3     1  UNL1        0.0407
     29 C          63.8451   82.5725   10.6333 C.3     1  UNL1        0.0036
     30 C          64.6014   83.1903   13.0408 C.3     1  UNL1        0.0122
     31 N          65.9236   84.8322   14.5096 N.am    1  UNL1       -0.3288
     32 C          64.6235   84.1569   14.1877 C.2     1  UNL1        0.2184
     33 O          64.3586   83.2090   15.3196 O.2     1  UNL1       -0.2754
     34 H          66.4055   84.6033   15.3370 H       1  UNL1        0.1449
     35 H          66.2950   85.5042   13.8934 H       1  UNL1        0.1449
@<TRIPOS>BOND
     1    31    32   am
     2    32    33    2
     3    21    32    1
     4    21    22    1
     5    22    23    1
     6    23    24    1
     7    24    25    1
     8    25    26    1
     9    25    27    1
    10    27    20    1
    11    20     1    1
    12     1     2    2
    13     1     3   am
    14     3     4    1
    15     4     5    1
    16     5     6    1
    17     6     8    1
    18     8    10    1
    19    10    11   ar
    20    11    12   ar
    21    12    13   ar
    22    13    16    1
    23    16    17    1
    24    16    18    1
    25    16    19    1
    26    13    14   ar
    27    14    15   ar
    28     6     7    1
    29    27    28    1
    30    28    29    1
    31    28    30    1
    32    26    21    1
    33     7     3    1
    34    30    21    1
    35    29    23    1
    36    15    10   ar
    37    31    34    1
    38    31    35    1
    39     8     9    1
@<TRIPOS>MOLECULE
*****
 35 39 0 0 0
SMALL
GASTEIGER

@<TRIPOS>ATOM
      1 C          63.7808   90.5396   15.6260 C.2     1  UNL1        0.4048
      2 O          63.4678   91.3098   16.8745 O.2     1  UNL1       -0.2262
      3 N          63.7244   89.0407   15.6353 N.am    1  UNL1       -0.2443
      4 C          63.3725   88.1790   16.8116 C.3     1  UNL1        0.0985
      5 C          63.4405   86.7460   16.3733 C.3     1  UNL1        0.0429
      6 C          63.8345   86.7221   14.9262 C.3     1  UNL1        0.0920
      7 C          64.0100   88.1403   14.4701 C.3     1  UNL1        0.1162
      8 N          64.0205   85.4955   14.0831 N.pl3   1  UNL1       -0.3180
      9 H          64.4882   84.7114   14.4514 H       1  UNL1        0.1482
     10 C          63.4938   85.4635   12.6790 C.ar    1  UNL1        0.1285
     11 C          63.7410   84.2645   11.8124 C.ar    1  UNL1        0.0340
     12 C          63.2143   84.2325   10.4083 C.ar    1  UNL1        0.0083
     13 C          62.4404   85.3995    9.8708 C.ar    1  UNL1        0.0906
     14 C          62.1931   86.5986   10.7375 C.ar    1  UNL1        0.1041
     15 N          62.7198   86.6306   12.1416 N.ar    1  UNL1       -0.2294
     16 C          61.9136   85.3675    8.4667 C.3     1  UNL1        0.4200
     17 F          61.3869   85.3355    7.0626 F       1  UNL1       -0.1658
     18 F          60.6253   85.9758    8.9361 F       1  UNL1       -0.1658
     19 F          63.2019   84.7593    7.9973 F       1  UNL1       -0.1658
     20 O          64.1503   91.2684   14.3681 O.3     1  UNL1       -0.4383
     21 C          64.8296   91.6302   13.2652 C.3     1  UNL1        0.0688
     22 C          66.2638   91.7019   13.6987 C.3     1  UNL1        0.0086
     23 C          67.3273   92.0829   12.7120 C.3     1  UNL1        0.0007
     24 C          66.9567   92.3923   11.2918 C.3     1  UNL1        0.0036
     25 C          65.5226   92.3206   10.8583 C.3     1  UNL1        0.0407
     26 C          64.4590   91.9396   11.8450 C.3     1  UNL1        0.0122
     27 C          65.5924   91.5298   14.0487 C.3     1  UNL1        0.1702
     28 C          66.6344   91.3926   15.1189 C.3     1  UNL1        0.0407
     29 C          67.6979   91.7736   14.1322 C.3     1  UNL1        0.0036
     30 C          65.2002   91.3209   14.6854 C.3     1  UNL1        0.0122
     31 N          62.6744   90.3022   13.8497 N.am    1  UNL1       -0.3288
     32 C          63.7659   91.2492   14.2519 C.2     1  UNL1        0.2184
     33 O          63.4920   91.6128   15.6811 O.2     1  UNL1       -0.2754
     34 H          61.9763   90.0522   14.4973 H       1  UNL1        0.1449
     35 H          62.6561   89.9308   12.9381 H       1  UNL1        0.1449
@<TRIPOS>BOND
     1    31    32   am
     2    32    33    2
     3    21    32    1
     4    21    22    1
     5    22    23    1
     6    23    24    1
     7    24    25    1
     8    25    26    1
     9    25    27    1
    10    27    20    1
    11    20     1    1
    12     1     2    2
    13     1     3   am
    14     3     4    1
    15     4     5    1
    16     5     6    1
    17     6     8    1
    18     8    10    1
    19    10    11   ar
    20    11    12   ar
    21    12    13   ar
    22    13    16    1
    23    16    17    1
    24    16    18    1
    25    16    19    1
    26    13    14   ar
    27    14    15   ar
    28     6     7    1
    29    27    28    1
    30    28    29    1
    31    28    30    1
    32    26    21    1
    33     7     3    1
    34    30    21    1
    35    29    23    1
    36    15    10   ar
    37    31    34    1
    38    31    35    1
    39     8     9    1
