@<TRIPOS>MOLECULE
*****
 32 34 0 0 0
SMALL
GASTEIGER

@<TRIPOS>ATOM
      1 C          62.9388   85.8979   12.3381 C.2     1  UNL1        0.2439
      2 O          62.8881   87.3843   12.1427 O.2     1  UNL1       -0.2731
      3 N          63.4265   85.3284   13.6372 N.am    1  UNL1       -0.2730
      4 C          63.5328   83.8711   13.9765 C.3     1  UNL1        0.0939
      5 C          64.0655   83.7582   15.3742 C.3     1  UNL1        0.0237
      6 C          64.2885   85.1457   15.8987 C.3     1  UNL1        0.0293
      7 C          63.8936   86.1161   14.8252 C.3     1  UNL1        0.1319
      8 C          63.9550   87.6116   14.9226 C.ar    1  UNL1        0.1353
      9 N          63.3174   88.4527   15.9886 N.ar    1  UNL1       -0.2279
     10 C          63.6331   89.8896   15.6959 C.ar    1  UNL1        0.1171
     11 C          64.4658   89.9366   14.4492 C.ar    1  UNL1        0.0769
     12 N          64.6647   88.5288   13.9712 N.ar    1  UNL1       -0.3394
     13 H          65.1720   88.2548   13.1732 H       1  UNL1        0.1671
     14 C          65.0049   91.1743   13.7951 C.ar    1  UNL1        0.0173
     15 C          64.6406   91.4915   12.3750 C.ar    1  UNL1        0.0032
     16 C          65.1797   92.7290   11.7210 C.ar    1  UNL1        0.0262
     17 C          66.0831   93.6494   12.4871 C.ar    1  UNL1        0.1641
     18 C          66.4474   93.3321   13.9071 C.ar    1  UNL1        0.0262
     19 C          65.9083   92.0946   14.5611 C.ar    1  UNL1        0.0032
     20 N          66.6222   94.8870   11.8330 N.2     1  UNL1        0.1168
     21 N          67.2597   94.8021   10.4779 N.2     1  UNL1       -0.0090
     22 N          67.8971   94.7174    9.1227 N.2     1  UNL1       -0.3278
     23 C          62.5019   84.9810   11.2343 C.3     1  UNL1        0.1512
     24 C          63.5158   82.5909   11.1381 C.2     1  UNL1        0.4021
     25 O          64.7719   83.1479   10.5366 O.2     1  UNL1       -0.2264
     26 N          62.3808   83.5074   11.4870 N.am    1  UNL1       -0.2640
     27 H          61.5563   83.1418   11.8818 H       1  UNL1        0.1532
     28 C          62.7250   80.6230   12.6388 C.3     1  UNL1        0.2573
     29 O          63.3946   81.1173   11.3908 O.3     1  UNL1       -0.4306
     30 C          62.1860   85.5378    9.8777 C.3     1  UNL1        0.0270
     31 C          60.9332   86.3355    9.6675 C.3     1  UNL1        0.0022
     32 C          63.1229   85.2969    8.7313 C.3     1  UNL1        0.0022
@<TRIPOS>UNITY_ATOM_ATTR
21 1
charge 1
22 1
charge -1
@<TRIPOS>BOND
     1    28    29    1
     2    29    24    1
     3    24    25    2
     4    24    26   am
     5    23    26    1
     6    23     1    1
     7     1     2    2
     8     1     3   am
     9     3     4    1
    10     4     5    1
    11     5     6    1
    12     6     7    1
    13     7     8    1
    14     8     9   ar
    15     9    10   ar
    16    10    11   ar
    17    11    14    1
    18    14    15   ar
    19    15    16   ar
    20    16    17   ar
    21    17    20    1
    22    20    21    2
    23    21    22    2
    24    17    18   ar
    25    18    19   ar
    26    11    12   ar
    27    23    30    1
    28    30    31    1
    29    30    32    1
    30     7     3    1
    31    12     8   ar
    32    19    14   ar
    33    26    27    1
    34    12    13    1
@<TRIPOS>MOLECULE
*****
 32 34 0 0 0
SMALL
GASTEIGER

@<TRIPOS>ATOM
      1 C          62.9615   85.7982   12.3965 C.2     1  UNL1        0.2439
      2 O          62.9190   87.2835   12.1911 O.2     1  UNL1       -0.2731
      3 N          63.4125   85.2356   13.7118 N.am    1  UNL1       -0.2730
      4 C          63.5066   83.7802   14.0625 C.3     1  UNL1        0.0939
      5 C          64.0008   83.6746   15.4747 C.3     1  UNL1        0.0237
      6 C          64.2122   85.0648   15.9970 C.3     1  UNL1        0.0293
      7 C          63.8486   86.0295   14.9074 C.3     1  UNL1        0.1319
      8 C          63.9102   87.5255   14.9976 C.ar    1  UNL1        0.1353
      9 N          63.2760   88.3715   16.0617 N.ar    1  UNL1       -0.2279
     10 C          63.5908   89.8070   15.7613 C.ar    1  UNL1        0.1171
     11 C          64.4194   89.8482   14.5117 C.ar    1  UNL1        0.0769
     12 N          64.6169   88.4382   14.0397 N.ar    1  UNL1       -0.3394
     13 H          65.1216   88.1605   13.2414 H       1  UNL1        0.1671
     14 C          64.9564   91.0828   13.8501 C.ar    1  UNL1        0.0173
     15 C          65.8842   91.9923   14.5998 C.ar    1  UNL1        0.0032
     16 C          66.4211   93.2267   13.9382 C.ar    1  UNL1        0.0262
     17 C          66.0303   93.5517   12.5269 C.ar    1  UNL1        0.1641
     18 C          65.1025   92.6422   11.7772 C.ar    1  UNL1        0.0262
     19 C          64.5656   91.4078   12.4388 C.ar    1  UNL1        0.0032
     20 N          66.5673   94.7863   11.8653 N.2     1  UNL1        0.1168
     21 N          67.3314   94.6760   10.5793 N.2     1  UNL1       -0.0090
     22 N          68.0955   94.5658    9.2932 N.2     1  UNL1       -0.3278
     23 C          62.5529   84.8756   11.2867 C.3     1  UNL1        0.1512
     24 C          61.8694   85.7538    8.9390 C.2     1  UNL1        0.4021
     25 O          63.3130   85.7929    8.5333 O.2     1  UNL1       -0.2264
     26 N          61.4894   85.2951   10.3156 N.am    1  UNL1       -0.2640
     27 H          60.5419   85.2693   10.5819 H       1  UNL1        0.1532
     28 C          59.5789   86.8824    8.4598 C.3     1  UNL1        0.2573
     29 O          60.8058   86.1732    7.9681 O.3     1  UNL1       -0.4306
     30 C          63.2080   83.5333   11.1478 C.3     1  UNL1        0.0270
     31 C          64.5981   83.4309   10.5936 C.3     1  UNL1        0.0022
     32 C          62.4730   82.2934   11.5632 C.3     1  UNL1        0.0022
@<TRIPOS>UNITY_ATOM_ATTR
21 1
charge 1
22 1
charge -1
@<TRIPOS>BOND
     1    28    29    1
     2    29    24    1
     3    24    25    2
     4    24    26   am
     5    23    26    1
     6    23     1    1
     7     1     2    2
     8     1     3   am
     9     3     4    1
    10     4     5    1
    11     5     6    1
    12     6     7    1
    13     7     8    1
    14     8     9   ar
    15     9    10   ar
    16    10    11   ar
    17    11    14    1
    18    14    15   ar
    19    15    16   ar
    20    16    17   ar
    21    17    20    1
    22    20    21    2
    23    21    22    2
    24    17    18   ar
    25    18    19   ar
    26    11    12   ar
    27    23    30    1
    28    30    31    1
    29    30    32    1
    30     7     3    1
    31    12     8   ar
    32    19    14   ar
    33    26    27    1
    34    12    13    1
@<TRIPOS>MOLECULE
*****
 32 34 0 0 0
SMALL
GASTEIGER

@<TRIPOS>ATOM
      1 C          62.3040   85.8775   10.8856 C.2     1  UNL1        0.2439
      2 O          62.8910   86.8502   11.8649 O.2     1  UNL1       -0.2731
      3 N          61.3830   86.3636    9.8060 N.am    1  UNL1       -0.2730
      4 C          60.7235   85.5135    8.7608 C.3     1  UNL1        0.0939
      5 C          59.8928   86.4096    7.8909 C.3     1  UNL1        0.0237
      6 C          60.0389   87.8136    8.3984 C.3     1  UNL1        0.0293
      7 C          60.9598   87.7851    9.5820 C.3     1  UNL1        0.1319
      8 C          61.3834   88.9701   10.3983 C.ar    1  UNL1        0.1353
      9 N          60.4685   89.9662   11.0470 N.ar    1  UNL1       -0.2279
     10 C          61.3158   90.9788   11.7589 C.ar    1  UNL1        0.1171
     11 C          62.7543   90.6086   11.5500 C.ar    1  UNL1        0.0769
     12 N          62.7961   89.3671   10.7091 N.ar    1  UNL1       -0.3394
     13 H          63.6081   88.8957   10.4132 H       1  UNL1        0.1671
     14 C          63.9426   91.3497   12.0877 C.ar    1  UNL1        0.0173
     15 C          64.3997   91.1126   13.4965 C.ar    1  UNL1        0.0032
     16 C          65.5879   91.8537   14.0341 C.ar    1  UNL1        0.0262
     17 C          66.3189   92.8318   13.1628 C.ar    1  UNL1        0.1641
     18 C          65.8617   93.0688   11.7540 C.ar    1  UNL1        0.0262
     19 C          64.6735   92.3277   11.2165 C.ar    1  UNL1        0.0032
     20 N          67.5071   93.5729   13.7005 N.2     1  UNL1        0.1168
     21 N          68.2321   93.0535   14.9065 N.2     1  UNL1       -0.0090
     22 N          68.9573   92.5341   16.1126 N.2     1  UNL1       -0.3278
     23 C          62.6379   84.4185   10.9858 C.3     1  UNL1        0.1512
     24 C          62.7497   83.5072   13.4162 C.2     1  UNL1        0.4021
     25 O          64.0315   84.2542   13.6374 O.2     1  UNL1       -0.2264
     26 N          62.0529   83.5893   12.0904 N.am    1  UNL1       -0.2640
     27 H          61.2116   83.0990   11.9453 H       1  UNL1        0.1532
     28 C          61.5724   81.3339   14.2165 C.3     1  UNL1        0.2573
     29 O          62.1647   82.6780   14.5208 O.3     1  UNL1       -0.4306
     30 C          63.5568   83.7888    9.9813 C.3     1  UNL1        0.0270
     31 C          63.7093   84.3979    8.6191 C.3     1  UNL1        0.0022
     32 C          64.3233   82.5500   10.3391 C.3     1  UNL1        0.0022
@<TRIPOS>UNITY_ATOM_ATTR
21 1
charge 1
22 1
charge -1
@<TRIPOS>BOND
     1    28    29    1
     2    29    24    1
     3    24    25    2
     4    24    26   am
     5    23    26    1
     6    23     1    1
     7     1     2    2
     8     1     3   am
     9     3     4    1
    10     4     5    1
    11     5     6    1
    12     6     7    1
    13     7     8    1
    14     8     9   ar
    15     9    10   ar
    16    10    11   ar
    17    11    14    1
    18    14    15   ar
    19    15    16   ar
    20    16    17   ar
    21    17    20    1
    22    20    21    2
    23    21    22    2
    24    17    18   ar
    25    18    19   ar
    26    11    12   ar
    27    23    30    1
    28    30    31    1
    29    30    32    1
    30     7     3    1
    31    12     8   ar
    32    19    14   ar
    33    26    27    1
    34    12    13    1
@<TRIPOS>MOLECULE
*****
 32 34 0 0 0
SMALL
GASTEIGER

@<TRIPOS>ATOM
      1 C          62.5790   86.4327   11.7615 C.2     1  UNL1        0.2439
      2 O          63.4768   87.4310   12.4302 O.2     1  UNL1       -0.2731
      3 N          61.7162   86.8537   10.6089 N.am    1  UNL1       -0.2730
      4 C          60.7733   85.9719    9.8451 C.3     1  UNL1        0.0939
      5 C          60.1193   86.8036    8.7819 C.3     1  UNL1        0.0237
      6 C          60.6579   88.1995    8.8886 C.3     1  UNL1        0.0293
      7 C          61.6449   88.2304   10.0177 C.3     1  UNL1        0.1319
      8 C          62.4237   89.4279   10.4753 C.ar    1  UNL1        0.1353
      9 N          62.6596   90.6810    9.6852 N.ar    1  UNL1       -0.2279
     10 C          63.4851   91.6100   10.5249 C.ar    1  UNL1        0.1171
     11 C          63.7595   90.9312   11.8341 C.ar    1  UNL1        0.0769
     12 N          63.1036   89.5826   11.8034 N.ar    1  UNL1       -0.3394
     13 H          63.1169   88.9160   12.5278 H       1  UNL1        0.1671
     14 C          64.5510   91.5010   12.9739 C.ar    1  UNL1        0.0173
     15 C          65.5514   92.5898   12.7219 C.ar    1  UNL1        0.0032
     16 C          66.3428   93.1595   13.8617 C.ar    1  UNL1        0.0262
     17 C          66.1337   92.6404   15.2534 C.ar    1  UNL1        0.1641
     18 C          65.1333   91.5516   15.5053 C.ar    1  UNL1        0.0262
     19 C          64.3419   90.9819   14.3656 C.ar    1  UNL1        0.0032
     20 N          66.9252   93.2102   16.3932 N.2     1  UNL1        0.1168
     21 N          68.2887   93.7846   16.1463 N.2     1  UNL1       -0.0090
     22 N          69.6522   94.3590   15.8995 N.2     1  UNL1       -0.3278
     23 C          62.5438   85.0133   12.2453 C.3     1  UNL1        0.1512
     24 C          63.0853   84.7658   14.7743 C.2     1  UNL1        0.4021
     25 O          64.5157   85.1272   14.5034 O.2     1  UNL1       -0.2264
     26 N          62.0994   84.7089   13.6452 N.am    1  UNL1       -0.2640
     27 H          61.1605   84.4717   13.8230 H       1  UNL1        0.1532
     28 C          62.3938   85.5799   17.1426 C.3     1  UNL1        0.2573
     29 O          62.6408   84.4613   16.1741 O.3     1  UNL1       -0.4306
     30 C          62.9531   83.8984   11.3292 C.3     1  UNL1        0.0270
     31 C          62.6835   82.4739   11.7143 C.3     1  UNL1        0.0022
     32 C          63.6321   84.2077   10.0278 C.3     1  UNL1        0.0022
@<TRIPOS>UNITY_ATOM_ATTR
21 1
charge 1
22 1
charge -1
@<TRIPOS>BOND
     1    28    29    1
     2    29    24    1
     3    24    25    2
     4    24    26   am
     5    23    26    1
     6    23     1    1
     7     1     2    2
     8     1     3   am
     9     3     4    1
    10     4     5    1
    11     5     6    1
    12     6     7    1
    13     7     8    1
    14     8     9   ar
    15     9    10   ar
    16    10    11   ar
    17    11    14    1
    18    14    15   ar
    19    15    16   ar
    20    16    17   ar
    21    17    20    1
    22    20    21    2
    23    21    22    2
    24    17    18   ar
    25    18    19   ar
    26    11    12   ar
    27    23    30    1
    28    30    31    1
    29    30    32    1
    30     7     3    1
    31    12     8   ar
    32    19    14   ar
    33    26    27    1
    34    12    13    1
@<TRIPOS>MOLECULE
*****
 32 34 0 0 0
SMALL
GASTEIGER

@<TRIPOS>ATOM
      1 C          64.8447   92.0664   12.2860 C.2     1  UNL1        0.2439
      2 O          64.3098   91.8552   10.9006 O.2     1  UNL1       -0.2731
      3 N          64.3068   91.2577   13.4291 N.am    1  UNL1       -0.2730
      4 C          64.7416   91.3575   14.8612 C.3     1  UNL1        0.0939
      5 C          63.9431   90.3687   15.6580 C.3     1  UNL1        0.0237
      6 C          63.0149   89.6579   14.7183 C.3     1  UNL1        0.0293
      7 C          63.2397   90.2073   13.3408 C.3     1  UNL1        0.1319
      8 C          62.5231   89.7812   12.0938 C.ar    1  UNL1        0.1353
      9 N          61.5373   90.6041   11.3184 N.ar    1  UNL1       -0.2279
     10 C          61.0715   89.7888   10.1487 C.ar    1  UNL1        0.1171
     11 C          61.7692   88.4620   10.2012 C.ar    1  UNL1        0.0769
     12 N          62.6664   88.4573   11.4033 N.ar    1  UNL1       -0.3394
     13 H          63.2472   87.7155   11.6890 H       1  UNL1        0.1671
     14 C          61.5996   87.3373    9.2232 C.ar    1  UNL1        0.0173
     15 C          60.2976   87.1629    8.4992 C.ar    1  UNL1        0.0032
     16 C          60.1281   86.0383    7.5212 C.ar    1  UNL1        0.0262
     17 C          61.2606   85.0880    7.2673 C.ar    1  UNL1        0.1641
     18 C          62.5626   85.2624    7.9914 C.ar    1  UNL1        0.0262
     19 C          62.7321   86.3871    8.9693 C.ar    1  UNL1        0.0032
     20 N          61.0910   83.9633    6.2894 N.2     1  UNL1        0.1168
     21 N          61.3403   84.1957    4.8286 N.2     1  UNL1       -0.0090
     22 N          61.5896   84.4279    3.3678 N.2     1  UNL1       -0.3278
     23 C          65.9176   93.0863   12.5283 C.3     1  UNL1        0.1512
     24 C          66.7376   94.6934   10.6589 C.2     1  UNL1        0.4021
     25 O          67.6813   93.6373   10.1649 O.2     1  UNL1       -0.2264
     26 N          65.8557   94.4179   11.8406 N.am    1  UNL1       -0.2640
     27 H          65.2364   95.1111   12.1648 H       1  UNL1        0.1532
     28 C          67.3625   96.2206    8.6521 C.3     1  UNL1        0.2573
     29 O          66.6757   96.0250    9.9712 O.3     1  UNL1       -0.4306
     30 C          67.0524   92.7746   13.4584 C.3     1  UNL1        0.0270
     31 C          68.0262   91.6866   13.1152 C.3     1  UNL1        0.0022
     32 C          67.2133   93.5509   14.7319 C.3     1  UNL1        0.0022
@<TRIPOS>UNITY_ATOM_ATTR
21 1
charge 1
22 1
charge -1
@<TRIPOS>BOND
     1    28    29    1
     2    29    24    1
     3    24    25    2
     4    24    26   am
     5    23    26    1
     6    23     1    1
     7     1     2    2
     8     1     3   am
     9     3     4    1
    10     4     5    1
    11     5     6    1
    12     6     7    1
    13     7     8    1
    14     8     9   ar
    15     9    10   ar
    16    10    11   ar
    17    11    14    1
    18    14    15   ar
    19    15    16   ar
    20    16    17   ar
    21    17    20    1
    22    20    21    2
    23    21    22    2
    24    17    18   ar
    25    18    19   ar
    26    11    12   ar
    27    23    30    1
    28    30    31    1
    29    30    32    1
    30     7     3    1
    31    12     8   ar
    32    19    14   ar
    33    26    27    1
    34    12    13    1
@<TRIPOS>MOLECULE
*****
 32 34 0 0 0
SMALL
GASTEIGER

@<TRIPOS>ATOM
      1 C          64.9698   92.0654   11.9376 C.2     1  UNL1        0.2439
      2 O          64.3422   91.7848   10.6045 O.2     1  UNL1       -0.2731
      3 N          64.4681   91.3646   13.1653 N.am    1  UNL1       -0.2730
      4 C          64.9939   91.5423   14.5588 C.3     1  UNL1        0.0939
      5 C          64.2033   90.6506   15.4697 C.3     1  UNL1        0.0237
      6 C          63.1889   89.9218   14.6392 C.3     1  UNL1        0.0293
      7 C          63.3526   90.3631   13.2150 C.3     1  UNL1        0.1319
      8 C          62.5429   89.8865   12.0457 C.ar    1  UNL1        0.1353
      9 N          61.4131   90.6281   11.3947 N.ar    1  UNL1       -0.2279
     10 C          60.8927   89.7847   10.2688 C.ar    1  UNL1        0.1171
     11 C          61.7009   88.5218   10.2238 C.ar    1  UNL1        0.0769
     12 N          62.7207   88.5848   11.3220 N.ar    1  UNL1       -0.3394
     13 H          63.3894   87.8931   11.5311 H       1  UNL1        0.1671
     14 C          61.5208   87.3939    9.2514 C.ar    1  UNL1        0.0173
     15 C          62.6513   86.4442    8.9867 C.ar    1  UNL1        0.0032
     16 C          62.4712   85.3164    8.0143 C.ar    1  UNL1        0.0262
     17 C          61.1607   85.1383    7.3067 C.ar    1  UNL1        0.1641
     18 C          60.0302   86.0879    7.5714 C.ar    1  UNL1        0.0262
     19 C          60.2103   87.2158    8.5438 C.ar    1  UNL1        0.0032
     20 N          60.9806   84.0104    6.3342 N.2     1  UNL1        0.1168
     21 N          61.3379   84.2011    4.8900 N.2     1  UNL1       -0.0090
     22 N          61.6952   84.3917    3.4456 N.2     1  UNL1       -0.3278
     23 C          66.0992   93.0470   12.0432 C.3     1  UNL1        0.1512
     24 C          68.2067   92.4215   13.4278 C.2     1  UNL1        0.4021
     25 O          68.7214   91.6085   12.2771 O.2     1  UNL1       -0.2264
     26 N          66.8955   93.1407   13.3108 N.am    1  UNL1       -0.2640
     27 H          66.5577   93.6743   14.0661 H       1  UNL1        0.1532
     28 C          68.3081   92.4580   16.0236 C.3     1  UNL1        0.2573
     29 O          69.0029   92.5152   14.6955 O.3     1  UNL1       -0.4306
     30 C          66.4321   93.9349   10.8809 C.3     1  UNL1        0.0270
     31 C          67.2531   93.4046    9.7430 C.3     1  UNL1        0.0022
     32 C          65.9442   95.3532   10.8565 C.3     1  UNL1        0.0022
@<TRIPOS>UNITY_ATOM_ATTR
21 1
charge 1
22 1
charge -1
@<TRIPOS>BOND
     1    28    29    1
     2    29    24    1
     3    24    25    2
     4    24    26   am
     5    23    26    1
     6    23     1    1
     7     1     2    2
     8     1     3   am
     9     3     4    1
    10     4     5    1
    11     5     6    1
    12     6     7    1
    13     7     8    1
    14     8     9   ar
    15     9    10   ar
    16    10    11   ar
    17    11    14    1
    18    14    15   ar
    19    15    16   ar
    20    16    17   ar
    21    17    20    1
    22    20    21    2
    23    21    22    2
    24    17    18   ar
    25    18    19   ar
    26    11    12   ar
    27    23    30    1
    28    30    31    1
    29    30    32    1
    30     7     3    1
    31    12     8   ar
    32    19    14   ar
    33    26    27    1
    34    12    13    1
@<TRIPOS>MOLECULE
*****
 32 34 0 0 0
SMALL
GASTEIGER

@<TRIPOS>ATOM
      1 C          63.8856   88.1510   13.8866 C.2     1  UNL1        0.2439
      2 O          63.2946   88.4837   12.5487 O.2     1  UNL1       -0.2731
      3 N          64.0431   86.7182   14.3016 N.am    1  UNL1       -0.2730
      4 C          64.6142   86.2345   15.6016 C.3     1  UNL1        0.0939
      5 C          64.5812   84.7349   15.5930 C.3     1  UNL1        0.0237
      6 C          63.9896   84.2917   14.2877 C.3     1  UNL1        0.0293
      7 C          63.6571   85.5175   13.4897 C.3     1  UNL1        0.1319
      8 C          63.0458   85.5388   12.1201 C.ar    1  UNL1        0.1353
      9 N          63.1898   84.4738   11.0736 N.ar    1  UNL1       -0.2279
     10 C          62.4162   84.9057    9.8632 C.ar    1  UNL1        0.1171
     11 C          61.7941   86.2376   10.1616 C.ar    1  UNL1        0.0769
     12 N          62.1832   86.6289   11.5564 N.ar    1  UNL1       -0.3394
     13 H          61.9188   87.4559   12.0204 H       1  UNL1        0.1671
     14 C          60.9339   87.0377    9.2289 C.ar    1  UNL1        0.0173
     15 C          60.9304   88.5355    9.3108 C.ar    1  UNL1        0.0032
     16 C          60.0702   89.3356    8.3782 C.ar    1  UNL1        0.0262
     17 C          59.2134   88.6379    7.3636 C.ar    1  UNL1        0.1641
     18 C          59.2169   87.1402    7.2817 C.ar    1  UNL1        0.0262
     19 C          60.0771   86.3401    8.2144 C.ar    1  UNL1        0.0032
     20 N          58.3532   89.4381    6.4310 N.2     1  UNL1        0.1168
     21 N          58.9518   90.5595    5.6347 N.2     1  UNL1       -0.0090
     22 N          59.5504   91.6810    4.8384 N.2     1  UNL1       -0.3278
     23 C          64.3192   89.2511   14.8095 C.3     1  UNL1        0.1512
     24 C          65.3681   91.3348   13.6659 C.2     1  UNL1        0.4021
     25 O          64.0093   91.7593   13.1931 O.2     1  UNL1       -0.2264
     26 N          65.5230   90.0807   14.4741 N.am    1  UNL1       -0.2640
     27 H          66.4148   89.8021   14.7845 H       1  UNL1        0.1532
     28 C          66.4524   93.6568   13.2387 C.3     1  UNL1        0.2573
     29 O          66.5719   92.1644   13.3306 O.3     1  UNL1       -0.4306
     30 C          63.5489   89.5215   16.0679 C.3     1  UNL1        0.0270
     31 C          63.4624   90.9179   16.6089 C.3     1  UNL1        0.0022
     32 C          62.8650   88.3956   16.7854 C.3     1  UNL1        0.0022
@<TRIPOS>UNITY_ATOM_ATTR
21 1
charge 1
22 1
charge -1
@<TRIPOS>BOND
     1    28    29    1
     2    29    24    1
     3    24    25    2
     4    24    26   am
     5    23    26    1
     6    23     1    1
     7     1     2    2
     8     1     3   am
     9     3     4    1
    10     4     5    1
    11     5     6    1
    12     6     7    1
    13     7     8    1
    14     8     9   ar
    15     9    10   ar
    16    10    11   ar
    17    11    14    1
    18    14    15   ar
    19    15    16   ar
    20    16    17   ar
    21    17    20    1
    22    20    21    2
    23    21    22    2
    24    17    18   ar
    25    18    19   ar
    26    11    12   ar
    27    23    30    1
    28    30    31    1
    29    30    32    1
    30     7     3    1
    31    12     8   ar
    32    19    14   ar
    33    26    27    1
    34    12    13    1
@<TRIPOS>MOLECULE
*****
 32 34 0 0 0
SMALL
GASTEIGER

@<TRIPOS>ATOM
      1 C          62.4455   85.2557   11.5345 C.2     1  UNL1        0.2439
      2 O          62.6258   86.6170   12.1380 O.2     1  UNL1       -0.2731
      3 N          62.5477   84.0331   12.3976 N.am    1  UNL1       -0.2730
      4 C          62.3915   82.6138   11.9379 C.3     1  UNL1        0.0939
      5 C          62.5713   81.7187   13.1281 C.3     1  UNL1        0.0237
      6 C          62.8385   82.5848   14.3233 C.3     1  UNL1        0.0293
      7 C          62.8239   84.0151   13.8718 C.3     1  UNL1        0.1319
      8 C          63.0464   85.2166   14.7418 C.ar    1  UNL1        0.1353
      9 N          62.7713   85.3023   16.2139 N.ar    1  UNL1       -0.2279
     10 C          63.1380   86.6820   16.6744 C.ar    1  UNL1        0.1171
     11 C          63.6398   87.4489   15.4869 C.ar    1  UNL1        0.0769
     12 N          63.5832   86.5432   14.2925 N.ar    1  UNL1       -0.3394
     13 H          63.8513   86.7783   13.3749 H       1  UNL1        0.1671
     14 C          64.1148   88.8718   15.4928 C.ar    1  UNL1        0.0173
     15 C          63.5062   89.8617   16.4413 C.ar    1  UNL1        0.0032
     16 C          63.9813   91.2844   16.4471 C.ar    1  UNL1        0.0262
     17 C          65.0648   91.7173   15.5044 C.ar    1  UNL1        0.1641
     18 C          65.6733   90.7273   14.5559 C.ar    1  UNL1        0.0262
     19 C          65.1983   89.3046   14.5501 C.ar    1  UNL1        0.0032
     20 N          65.5398   93.1401   15.5103 N.2     1  UNL1        0.1168
     21 N          66.0064   93.7803   14.2366 N.2     1  UNL1       -0.0090
     22 N          66.4731   94.4205   12.9628 N.2     1  UNL1       -0.3278
     23 C          62.1630   85.1168   10.0679 C.3     1  UNL1        0.1512
     24 C          60.6880   87.0405    9.1330 C.2     1  UNL1        0.4021
     25 O          61.8235   88.0024    9.3207 O.2     1  UNL1       -0.2264
     26 N          60.8577   85.5977    9.5066 N.am    1  UNL1       -0.2640
     27 H          60.1124   84.9663    9.3835 H       1  UNL1        0.1532
     28 C          59.3610   88.6514    7.5857 C.3     1  UNL1        0.2573
     29 O          59.3827   87.5212    8.5718 O.3     1  UNL1       -0.4306
     30 C          63.1858   84.4971    9.1625 C.3     1  UNL1        0.0270
     31 C          64.2628   83.6236    9.7345 C.3     1  UNL1        0.0022
     32 C          63.1318   84.7509    7.6851 C.3     1  UNL1        0.0022
@<TRIPOS>UNITY_ATOM_ATTR
21 1
charge 1
22 1
charge -1
@<TRIPOS>BOND
     1    28    29    1
     2    29    24    1
     3    24    25    2
     4    24    26   am
     5    23    26    1
     6    23     1    1
     7     1     2    2
     8     1     3   am
     9     3     4    1
    10     4     5    1
    11     5     6    1
    12     6     7    1
    13     7     8    1
    14     8     9   ar
    15     9    10   ar
    16    10    11   ar
    17    11    14    1
    18    14    15   ar
    19    15    16   ar
    20    16    17   ar
    21    17    20    1
    22    20    21    2
    23    21    22    2
    24    17    18   ar
    25    18    19   ar
    26    11    12   ar
    27    23    30    1
    28    30    31    1
    29    30    32    1
    30     7     3    1
    31    12     8   ar
    32    19    14   ar
    33    26    27    1
    34    12    13    1
@<TRIPOS>MOLECULE
*****
 32 34 0 0 0
SMALL
GASTEIGER

@<TRIPOS>ATOM
      1 C          70.9017   71.6737   13.5572 C.2     1  UNL1        0.2439
      2 O          70.6669   72.9774   12.8535 O.2     1  UNL1       -0.2731
      3 N          70.9760   71.6324   15.0547 N.am    1  UNL1       -0.2730
      4 C          71.2044   70.4095   15.8928 C.3     1  UNL1        0.0939
      5 C          71.2045   70.8281   17.3332 C.3     1  UNL1        0.0237
      6 C          70.9763   72.3097   17.3854 C.3     1  UNL1        0.0293
      7 C          70.8351   72.8067   15.9772 C.3     1  UNL1        0.1319
      8 C          70.5950   74.2286   15.5641 C.ar    1  UNL1        0.1353
      9 N          69.3358   75.0118   15.7900 N.ar    1  UNL1       -0.2279
     10 C          69.5346   76.3842   15.2180 C.ar    1  UNL1        0.1171
     11 C          70.9166   76.4491   14.6386 C.ar    1  UNL1        0.0769
     12 N          71.5720   75.1169   14.8525 N.ar    1  UNL1       -0.3394
     13 H          72.4833   74.8691   14.5745 H       1  UNL1        0.1671
     14 C          71.5348   77.6376   13.9637 C.ar    1  UNL1        0.0173
     15 C          71.2619   77.9022   12.5127 C.ar    1  UNL1        0.0032
     16 C          71.8801   79.0906   11.8379 C.ar    1  UNL1        0.0262
     17 C          72.7711   80.0145   12.6141 C.ar    1  UNL1        0.1641
     18 C          73.0440   79.7499   14.0651 C.ar    1  UNL1        0.0262
     19 C          72.4258   78.5615   14.7399 C.ar    1  UNL1        0.0032
     20 N          73.3893   81.2030   11.9392 N.2     1  UNL1        0.1168
     21 N          72.7079   81.8357   10.7623 N.2     1  UNL1       -0.0090
     22 N          72.0264   82.4685    9.5852 N.2     1  UNL1       -0.3278
     23 C          71.0622   70.4112   12.7632 C.3     1  UNL1        0.1512
     24 C          72.3153   70.6483   10.4997 C.2     1  UNL1        0.4021
     25 O          71.1088   71.3083    9.9009 O.2     1  UNL1       -0.2264
     26 N          72.2920   70.1998   11.9309 N.am    1  UNL1       -0.2640
     27 H          73.0840   69.7666   12.3239 H       1  UNL1        0.1532
     28 C          73.6304   71.0280    8.2915 C.3     1  UNL1        0.2573
     29 O          73.5452   70.4368    9.6675 O.3     1  UNL1       -0.4306
     30 C          69.9928   69.3601   12.8017 C.3     1  UNL1        0.0270
     31 C          70.2595   68.0428   13.4678 C.3     1  UNL1        0.0022
     32 C          68.6566   69.6261   12.1740 C.3     1  UNL1        0.0022
@<TRIPOS>UNITY_ATOM_ATTR
21 1
charge 1
22 1
charge -1
@<TRIPOS>BOND
     1    28    29    1
     2    29    24    1
     3    24    25    2
     4    24    26   am
     5    23    26    1
     6    23     1    1
     7     1     2    2
     8     1     3   am
     9     3     4    1
    10     4     5    1
    11     5     6    1
    12     6     7    1
    13     7     8    1
    14     8     9   ar
    15     9    10   ar
    16    10    11   ar
    17    11    14    1
    18    14    15   ar
    19    15    16   ar
    20    16    17   ar
    21    17    20    1
    22    20    21    2
    23    21    22    2
    24    17    18   ar
    25    18    19   ar
    26    11    12   ar
    27    23    30    1
    28    30    31    1
    29    30    32    1
    30     7     3    1
    31    12     8   ar
    32    19    14   ar
    33    26    27    1
    34    12    13    1
