@<TRIPOS>MOLECULE
*****
 86 92 0 0 0
SMALL
GASTEIGER

@<TRIPOS>ATOM
      1 C          59.8382   92.0384    3.3729 C.3     1  UNL1        0.0196
      2 C          58.4709   92.0794    3.9886 C.3     1  UNL1        0.0017
      3 C          58.2467   91.5056    5.3562 C.3     1  UNL1        0.0017
      4 C          59.3897   90.8907    6.1082 C.3     1  UNL1        0.0196
      5 C          60.7569   90.8498    5.4926 C.3     1  UNL1        0.0017
      6 C          60.9812   91.4236    4.1249 C.3     1  UNL1        0.0017
      7 C          59.1655   90.3169    7.4758 C.3     1  UNL1        0.0881
      8 N          60.2911   89.6372    8.1978 N.pl3   1  UNL1       -0.3180
      9 H          60.9627   90.1733    8.6782 H       1  UNL1        0.1482
     10 C          60.3935   88.1408    8.1876 C.ar    1  UNL1        0.1317
     11 N          59.7287   87.3510    7.0995 N.ar    1  UNL1       -0.2092
     12 C          59.8310   85.8544    7.0893 C.ar    1  UNL1        0.2000
     13 N          60.5983   85.1478    8.1673 N.ar    1  UNL1       -0.2238
     14 C          61.2632   85.9377    9.2554 C.ar    1  UNL1        0.0888
     15 C          62.0305   85.2311   10.3334 C.ar    1  UNL1        0.0574
     16 C          62.6953   86.0210   11.4215 C.ar    1  UNL1        0.1535
     17 C          62.5929   87.5174   11.4317 C.ar    1  UNL1        0.0850
     18 C          61.8257   88.2240   10.3537 C.ar    1  UNL1        0.0220
     19 C          61.1608   87.4342    9.2656 C.ar    1  UNL1        0.0505
     20 N          63.2578   88.3073   12.5198 N.am    1  UNL1       -0.2802
     21 C          62.5032   89.3948   13.2254 C.2     1  UNL1        0.2443
     22 O          61.0837   89.6925   12.8428 O.2     1  UNL1       -0.2730
     23 H          64.1895   88.1120   12.7709 H       1  UNL1        0.1550
     24 C          63.1681   90.1847   14.3135 C.3     1  UNL1        0.1521
     25 C          62.9378   90.0231   15.7869 C.3     1  UNL1        0.0310
     26 C          63.8074   91.0134   16.5033 C.3     1  UNL1        0.0237
     27 C          64.5752   91.7870   15.4727 C.3     1  UNL1        0.0939
     28 N          64.1800   91.2748   14.1192 N.am    1  UNL1       -0.2717
     29 C          64.7047   91.7664   12.8028 C.2     1  UNL1        0.2438
     30 O          64.2140   91.1547   11.5242 O.2     1  UNL1       -0.2731
     31 C          65.7202   92.8698   12.7651 C.3     1  UNL1        0.1487
     32 C          67.0308   92.7076   13.4764 C.3     1  UNL1        0.0250
     33 C          67.2976   91.4530   12.6987 C.3     1  UNL1        0.0021
     34 C          66.7640   93.9622   14.2541 C.3     1  UNL1        0.0021
     35 C          68.3414   92.5453   14.1877 C.3     1  UNL1        0.0021
     36 N          65.4250   94.1354   12.0160 N.am    1  UNL1       -0.2973
     37 C          66.0390   94.3693   10.6676 C.2     1  UNL1        0.2370
     38 O          66.9482   93.3377   10.0683 O.2     1  UNL1       -0.2737
     39 H          64.8283   94.8125   12.4093 H       1  UNL1        0.1499
     40 C          65.7439   95.6349    9.9184 C.3     1  UNL1        0.1316
     41 C          65.1425   96.8076   10.6346 C.3     1  UNL1        0.0270
     42 N          66.0502   95.7277    8.4529 N.3     1  UNL1       -0.2902
     43 C          67.4740   95.7037    7.9813 C.3     1  UNL1        0.0862
     44 H          65.6452   96.6035    8.1224 H       1  UNL1        0.1237
     45 O          63.4626   85.3144   12.4995 O.3     1  UNL1       -0.4701
     46 C          62.7559   84.3728   13.4289 C.3     1  UNL1        0.2525
     47 C          60.0623   92.6123    2.0053 C.3     1  UNL1        0.0881
     48 N          60.8065   93.9050    1.8471 N.pl3   1  UNL1       -0.3180
     49 H          60.3402   94.7613    1.9830 H       1  UNL1        0.1482
     50 C          62.0445   94.1764   -2.4708 C.ar    1  UNL1        0.0850
     51 C          61.6318   94.0859   -1.0315 C.ar    1  UNL1        0.0220
     52 C          62.6740   93.9835    0.0425 C.ar    1  UNL1        0.0505
     53 C          62.2614   93.8930    1.4818 C.ar    1  UNL1        0.1317
     54 N          63.3035   93.7906    2.5558 N.ar    1  UNL1       -0.2092
     55 C          64.7583   93.7786    2.1905 C.ar    1  UNL1        0.2000
     56 N          65.1709   93.8691    0.7512 N.ar    1  UNL1       -0.2238
     57 C          64.1288   93.9715   -0.3228 C.ar    1  UNL1        0.0888
     58 C          64.5414   94.0620   -1.7621 C.ar    1  UNL1        0.0574
     59 C          63.4993   94.1644   -2.8361 C.ar    1  UNL1        0.1535
     60 C          60.6461   95.6180   -4.1188 C.2     1  UNL1        0.2443
     61 O          61.3320   96.8548   -3.6190 O.2     1  UNL1       -0.2730
     62 N          61.0023   94.2788   -3.5447 N.am    1  UNL1       -0.2802
     63 H          60.5522   93.4671   -3.8728 H       1  UNL1        0.1550
     64 C          57.5424   94.6386   -3.8795 C.2     1  UNL1        0.2438
     65 O          58.3525   94.4073   -2.6384 O.2     1  UNL1       -0.2731
     66 N          58.1773   95.2702   -5.0827 N.am    1  UNL1       -0.2717
     67 C          57.4970   95.5626   -6.3874 C.3     1  UNL1        0.0939
     68 C          58.5033   96.1934   -7.3037 C.3     1  UNL1        0.0237
     69 C          59.8054   96.2910   -6.5654 C.3     1  UNL1        0.0310
     70 C          59.6039   95.7204   -5.1929 C.3     1  UNL1        0.1521
     71 C          56.0973   94.2384   -3.9172 C.3     1  UNL1        0.1487
     72 C          55.1738   94.6579   -2.8122 C.3     1  UNL1        0.0250
     73 C          55.5624   93.4414   -2.0255 C.3     1  UNL1        0.0021
     74 C          54.7851   95.8745   -3.5989 C.3     1  UNL1        0.0021
     75 C          54.2502   95.0775   -1.7072 C.3     1  UNL1        0.0021
     76 C          56.0830   92.0234   -5.2749 C.2     1  UNL1        0.2370
     77 O          57.1119   91.4482   -4.3473 O.2     1  UNL1       -0.2737
     78 N          55.5757   93.4185   -5.0599 N.am    1  UNL1       -0.2973
     79 H          54.9004   93.7961   -5.6688 H       1  UNL1        0.1499
     80 C          55.5615   91.2035   -6.4177 C.3     1  UNL1        0.1316
     81 C          56.4657   90.8495   -7.5609 C.3     1  UNL1        0.0270
     82 C          53.8223   89.2820   -6.2355 C.3     1  UNL1        0.0862
     83 N          54.1357   90.7377   -6.4171 N.3     1  UNL1       -0.2902
     84 H          53.6631   91.2368   -5.6635 H       1  UNL1        0.1237
     85 O          63.9119   94.2549   -4.2753 O.3     1  UNL1       -0.4701
     86 C          64.5082   95.5247   -4.8062 C.3     1  UNL1        0.2525
@<TRIPOS>BOND
     1    82    83    1
     2    83    80    1
     3    80    81    1
     4    80    76    1
     5    76    77    2
     6    76    78   am
     7    71    78    1
     8    71    64    1
     9    64    65    2
    10    64    66   am
    11    66    67    1
    12    67    68    1
    13    68    69    1
    14    69    70    1
    15    70    60    1
    16    60    61    2
    17    60    62   am
    18    62    50    1
    19    50    51   ar
    20    51    52   ar
    21    52    53   ar
    22    53    48    1
    23    48    47    1
    24     1    47    1
    25     1     2    1
    26     2     3    1
    27     3     4    1
    28     4     7    1
    29     7     8    1
    30     8    10    1
    31    10    11   ar
    32    11    12   ar
    33    12    13   ar
    34    13    14   ar
    35    14    15   ar
    36    15    16   ar
    37    16    45    1
    38    45    46    1
    39    16    17   ar
    40    17    20    1
    41    20    21   am
    42    21    22    2
    43    24    21    1
    44    24    25    1
    45    25    26    1
    46    26    27    1
    47    27    28    1
    48    28    29   am
    49    29    30    2
    50    29    31    1
    51    31    36    1
    52    36    37   am
    53    37    38    2
    54    37    40    1
    55    40    41    1
    56    40    42    1
    57    42    43    1
    58    31    32    1
    59    32    33    1
    60    32    34    1
    61    32    35    1
    62    17    18   ar
    63    18    19   ar
    64     4     5    1
    65     5     6    1
    66    53    54   ar
    67    54    55   ar
    68    55    56   ar
    69    56    57   ar
    70    57    58   ar
    71    58    59   ar
    72    59    85    1
    73    85    86    1
    74    71    72    1
    75    72    73    1
    76    72    74    1
    77    72    75    1
    78    70    66    1
    79    59    50   ar
    80    57    52   ar
    81     6     1    1
    82    19    10   ar
    83    19    14   ar
    84    28    24    1
    85    83    84    1
    86    78    79    1
    87    62    63    1
    88    48    49    1
    89     8     9    1
    90    20    23    1
    91    36    39    1
    92    42    44    1
@<TRIPOS>MOLECULE
*****
 86 92 0 0 0
SMALL
GASTEIGER

@<TRIPOS>ATOM
      1 C          60.0880   91.9442    3.5120 C.3     1  UNL1        0.0196
      2 C          58.7026   92.0391    4.0793 C.3     1  UNL1        0.0017
      3 C          58.4056   91.4655    5.4330 C.3     1  UNL1        0.0017
      4 C          59.4939   90.7970    6.2196 C.3     1  UNL1        0.0196
      5 C          60.8793   90.7021    5.6523 C.3     1  UNL1        0.0017
      6 C          61.1763   91.2757    4.2985 C.3     1  UNL1        0.0017
      7 C          59.1969   90.2233    7.5733 C.3     1  UNL1        0.0881
      8 N          60.2833   89.5476    8.3564 N.pl3   1  UNL1       -0.3180
      9 H          60.8622   90.0760    8.9523 H       1  UNL1        0.1482
     10 C          60.4879   88.0669    8.2316 C.ar    1  UNL1        0.1317
     11 N          59.9274   87.3292    7.0519 N.ar    1  UNL1       -0.2092
     12 C          60.1319   85.8484    6.9270 C.ar    1  UNL1        0.2000
     13 N          60.8969   85.1054    7.9819 N.ar    1  UNL1       -0.2238
     14 C          61.4573   85.8431    9.1616 C.ar    1  UNL1        0.0888
     15 C          62.2222   85.1001   10.2165 C.ar    1  UNL1        0.0574
     16 C          62.7827   85.8378   11.3962 C.ar    1  UNL1        0.1535
     17 C          62.5781   87.3185   11.5210 C.ar    1  UNL1        0.0850
     18 C          61.8132   88.0615   10.4661 C.ar    1  UNL1        0.0220
     19 C          61.2528   87.3238    9.2865 C.ar    1  UNL1        0.0505
     20 N          63.1386   88.0562   12.7008 N.am    1  UNL1       -0.2802
     21 C          62.7859   89.4975   12.9206 C.2     1  UNL1        0.2443
     22 O          61.8728   90.2010   11.9608 O.2     1  UNL1       -0.2730
     23 H          63.7379   87.5944   13.3307 H       1  UNL1        0.1550
     24 C          63.3463   90.2351   14.1003 C.3     1  UNL1        0.1521
     25 C          62.9743   90.0138   15.5366 C.3     1  UNL1        0.0310
     26 C          63.7752   90.9655   16.3749 C.3     1  UNL1        0.0237
     27 C          64.6423   91.7751   15.4568 C.3     1  UNL1        0.0939
     28 N          64.3772   91.3236   14.0510 N.am    1  UNL1       -0.2717
     29 C          65.0287   91.8656   12.8133 C.2     1  UNL1        0.2438
     30 O          64.6608   91.3124   11.4685 O.2     1  UNL1       -0.2731
     31 C          66.0480   92.9608   12.9205 C.3     1  UNL1        0.1487
     32 C          67.2919   92.7508   13.7320 C.3     1  UNL1        0.0250
     33 C          66.9033   93.8931   14.6232 C.3     1  UNL1        0.0021
     34 C          67.6805   91.6086   12.8409 C.3     1  UNL1        0.0021
     35 C          68.5358   92.5409   14.5436 C.3     1  UNL1        0.0021
     36 N          65.8235   94.2659   12.2161 N.am    1  UNL1       -0.2973
     37 C          66.4986   94.5359   10.9041 C.2     1  UNL1        0.2370
     38 O          67.3983   93.5008   10.2966 O.2     1  UNL1       -0.2737
     39 H          65.2330   94.9453   12.6148 H       1  UNL1        0.1499
     40 C          66.2741   95.8410   10.1996 C.3     1  UNL1        0.1316
     41 C          65.0548   96.6590   10.5065 C.3     1  UNL1        0.0270
     42 N          67.2690   96.3281    9.1882 N.3     1  UNL1       -0.2902
     43 C          67.2998   95.7244    7.8154 C.3     1  UNL1        0.0862
     44 H          68.1943   96.1860    9.5932 H       1  UNL1        0.1237
     45 O          63.5476   85.0947   12.4511 O.3     1  UNL1       -0.4701
     46 C          63.2804   83.6374   12.6848 C.3     1  UNL1        0.2525
     47 C          60.3850   92.5178    2.1582 C.3     1  UNL1        0.0881
     48 N          60.9586   93.8986    2.0381 N.pl3   1  UNL1       -0.3180
     49 H          60.3854   94.6846    2.1895 H       1  UNL1        0.1482
     50 C          62.2475   93.8849   -2.2733 C.ar    1  UNL1        0.0850
     51 C          61.8179   93.8895   -0.8362 C.ar    1  UNL1        0.0220
     52 C          62.8351   94.0772    0.2502 C.ar    1  UNL1        0.0505
     53 C          62.4055   94.0818    1.6873 C.ar    1  UNL1        0.1317
     54 N          63.4226   94.2695    2.7736 N.ar    1  UNL1       -0.2092
     55 C          64.8694   94.4527    2.4228 C.ar    1  UNL1        0.2000
     56 N          65.2991   94.4482    0.9856 N.ar    1  UNL1       -0.2238
     57 C          64.2819   94.2604   -0.1007 C.ar    1  UNL1        0.0888
     58 C          64.7116   94.2558   -1.5378 C.ar    1  UNL1        0.0574
     59 C          63.6944   94.0681   -2.6241 C.ar    1  UNL1        0.1535
     60 C          60.8159   94.8623   -4.2085 C.2     1  UNL1        0.2443
     61 O          61.4186   96.2152   -3.9711 O.2     1  UNL1       -0.2730
     62 N          61.2304   93.6972   -3.3596 N.am    1  UNL1       -0.2802
     63 H          60.8348   92.8092   -3.5154 H       1  UNL1        0.1550
     64 C          57.7582   93.7944   -3.8093 C.2     1  UNL1        0.2438
     65 O          58.5456   93.8804   -2.5355 O.2     1  UNL1       -0.2731
     66 N          58.3932   94.1837   -5.1113 N.am    1  UNL1       -0.2717
     67 C          57.7342   94.1504   -6.4584 C.3     1  UNL1        0.0939
     68 C          58.7325   94.6206   -7.4745 C.3     1  UNL1        0.0237
     69 C          60.0084   94.9446   -6.7554 C.3     1  UNL1        0.0310
     70 C          59.7987   94.6745   -5.2949 C.3     1  UNL1        0.1521
     71 C          56.3357   93.3193   -3.7811 C.3     1  UNL1        0.1487
     72 C          56.0330   91.8731   -3.5228 C.3     1  UNL1        0.0250
     73 C          55.8852   91.6406   -4.9973 C.3     1  UNL1        0.0021
     74 C          56.1809   92.1055   -2.0483 C.3     1  UNL1        0.0021
     75 C          55.7304   90.4268   -3.2645 C.3     1  UNL1        0.0021
     76 C          54.8432   95.2727   -2.9407 C.2     1  UNL1        0.2370
     77 O          55.5902   95.2839   -1.6400 O.2     1  UNL1       -0.2737
     78 N          55.2159   94.2904   -4.0113 N.am    1  UNL1       -0.2973
     79 H          54.7256   94.2831   -4.8650 H       1  UNL1        0.1499
     80 C          53.7233   96.2439   -3.1708 C.3     1  UNL1        0.1316
     81 C          52.8548   96.6722   -2.0253 C.3     1  UNL1        0.0270
     82 C          52.1036   96.6893   -5.1527 C.3     1  UNL1        0.0862
     83 N          53.4722   96.7867   -4.5464 N.3     1  UNL1       -0.2902
     84 H          53.7129   97.7775   -4.5204 H       1  UNL1        0.1237
     85 O          64.1241   94.0635   -4.0613 O.3     1  UNL1       -0.4701
     86 C          64.6040   92.7923   -4.6965 C.3     1  UNL1        0.2525
@<TRIPOS>BOND
     1    82    83    1
     2    83    80    1
     3    80    81    1
     4    80    76    1
     5    76    77    2
     6    76    78   am
     7    71    78    1
     8    71    64    1
     9    64    65    2
    10    64    66   am
    11    66    67    1
    12    67    68    1
    13    68    69    1
    14    69    70    1
    15    70    60    1
    16    60    61    2
    17    60    62   am
    18    62    50    1
    19    50    51   ar
    20    51    52   ar
    21    52    53   ar
    22    53    48    1
    23    48    47    1
    24     1    47    1
    25     1     2    1
    26     2     3    1
    27     3     4    1
    28     4     7    1
    29     7     8    1
    30     8    10    1
    31    10    11   ar
    32    11    12   ar
    33    12    13   ar
    34    13    14   ar
    35    14    15   ar
    36    15    16   ar
    37    16    45    1
    38    45    46    1
    39    16    17   ar
    40    17    20    1
    41    20    21   am
    42    21    22    2
    43    24    21    1
    44    24    25    1
    45    25    26    1
    46    26    27    1
    47    27    28    1
    48    28    29   am
    49    29    30    2
    50    29    31    1
    51    31    36    1
    52    36    37   am
    53    37    38    2
    54    37    40    1
    55    40    41    1
    56    40    42    1
    57    42    43    1
    58    31    32    1
    59    32    33    1
    60    32    34    1
    61    32    35    1
    62    17    18   ar
    63    18    19   ar
    64     4     5    1
    65     5     6    1
    66    53    54   ar
    67    54    55   ar
    68    55    56   ar
    69    56    57   ar
    70    57    58   ar
    71    58    59   ar
    72    59    85    1
    73    85    86    1
    74    71    72    1
    75    72    73    1
    76    72    74    1
    77    72    75    1
    78    70    66    1
    79    59    50   ar
    80    57    52   ar
    81     6     1    1
    82    19    10   ar
    83    19    14   ar
    84    28    24    1
    85    83    84    1
    86    78    79    1
    87    62    63    1
    88    48    49    1
    89     8     9    1
    90    20    23    1
    91    36    39    1
    92    42    44    1
