@<TRIPOS>MOLECULE
*****
 45 48 0 0 0
SMALL
GASTEIGER

@<TRIPOS>ATOM
      1 N          61.5664   86.2740    9.4551 N.pl3   1  UNL1       -0.3043
      2 C          62.7385   85.6215    8.7841 C.3     1  UNL1        0.1123
      3 C          63.5907   84.6479    9.5429 C.3     1  UNL1        0.1149
      4 N          63.2707   84.3267   10.9729 N.am    1  UNL1       -0.2747
      5 C          64.1229   83.3531   11.7317 C.2     1  UNL1        0.2442
      6 O          65.2950   82.7006   11.0607 O.2     1  UNL1       -0.2731
      7 C          62.0985   84.9792   11.6439 C.3     1  UNL1        0.1149
      8 C          61.2464   85.9529   10.8850 C.3     1  UNL1        0.1123
      9 C          60.6801   88.6908    9.1036 C.ar    1  UNL1        0.0076
     10 C          59.8280   89.6644    8.3447 C.ar    1  UNL1        0.0279
     11 C          59.0099   89.1948    7.1785 C.ar    1  UNL1        0.1400
     12 F          58.1577   90.1685    6.4196 F       1  UNL1       -0.2042
     13 C          59.0439   87.7516    6.7711 C.ar    1  UNL1        0.0309
     14 C          59.8960   86.7780    7.5300 C.ar    1  UNL1        0.0165
     15 C          60.7142   87.2477    8.6963 C.ar    1  UNL1        0.0453
     16 C          61.4983   89.1605   10.2698 C.3     1  UNL1        0.0781
     17 N          62.8667   89.7318   10.0444 N.3     1  UNL1       -0.2939
     18 H          63.5297   89.0863   10.4735 H       1  UNL1        0.1235
     19 C          63.2017   91.1010   10.5574 C.3     1  UNL1        0.0863
     20 C          63.8905   91.2584   11.8806 C.3     1  UNL1        0.0894
     21 N          65.1362   92.0876   11.9837 N.3     1  UNL1       -0.2715
     22 C          67.1685   92.6210   10.4555 C.3     1  UNL1        0.0188
     23 C          65.7047   92.7425   10.7598 C.3     1  UNL1        0.0722
     24 C          65.8135   92.2619   13.3108 C.3     1  UNL1        0.0722
     25 C          65.7057   91.1897   14.3543 C.3     1  UNL1        0.0188
     26 C          60.9480   89.0588   11.6615 C.3     1  UNL1        0.0203
     27 C          59.6032   89.6415   11.9807 C.3     1  UNL1        0.0017
     28 C          59.2523   91.0213   11.5081 C.3     1  UNL1        0.0001
     29 C          58.6092   88.8446   12.7725 C.3     1  UNL1        0.0001
     30 C          63.8029   83.0320   13.1615 C.3     1  UNL1        0.1564
     31 N          62.6756   82.0972   13.4861 N.am    1  UNL1       -0.2727
     32 C          61.6305   82.3089   14.5410 C.3     1  UNL1        0.0943
     33 C          60.7045   81.1291   14.5197 C.3     1  UNL1        0.0311
     34 C          61.1774   80.1880   13.4515 C.3     1  UNL1        0.0870
     35 C          62.3956   80.7863   12.8127 C.2     1  UNL1        0.2260
     36 O          63.1936   80.1803   11.6966 O.2     1  UNL1       -0.2749
     37 C          64.6101   83.6458   14.2668 C.3     1  UNL1        0.0564
     38 C          64.2460   85.0003   14.7984 C.ar    1  UNL1       -0.0094
     39 C          64.7256   86.2357   14.0956 C.ar    1  UNL1       -0.0025
     40 C          64.3614   87.5902   14.6272 C.ar    1  UNL1        0.0111
     41 C          63.5176   87.7094   15.8617 C.ar    1  UNL1        0.0585
     42 CL         63.1534   89.0639   16.3933 Cl      1  UNL1       -0.0822
     43 C          63.0380   86.4741   16.5645 C.ar    1  UNL1        0.0225
     44 C          63.4022   85.1195   16.0328 C.ar    1  UNL1        0.0546
     45 CL         62.9226   83.8842   16.7356 Cl      1  UNL1       -0.0825
@<TRIPOS>BOND
     1    22    23    1
     2    23    21    1
     3    21    24    1
     4    24    25    1
     5    21    20    1
     6    20    19    1
     7    19    17    1
     8    17    16    1
     9    16    26    1
    10    26    27    1
    11    27    28    1
    12    27    29    1
    13    16     9    1
    14     9    10   ar
    15    10    11   ar
    16    11    12    1
    17    11    13   ar
    18    13    14   ar
    19    14    15   ar
    20    15     1    1
    21     1     2    1
    22     2     3    1
    23     3     4    1
    24     4     5   am
    25     5     6    2
    26     5    30    1
    27    30    37    1
    28    37    38    1
    29    38    39   ar
    30    39    40   ar
    31    40    41   ar
    32    41    42    1
    33    41    43   ar
    34    43    44   ar
    35    44    45    1
    36    30    31    1
    37    31    32    1
    38    32    33    1
    39    33    34    1
    40    34    35    1
    41    35    36    2
    42     4     7    1
    43     7     8    1
    44    15     9   ar
    45     8     1    1
    46    44    38   ar
    47    35    31   am
    48    17    18    1
@<TRIPOS>MOLECULE
*****
 45 48 0 0 0
SMALL
GASTEIGER

@<TRIPOS>ATOM
      1 N          62.1289   89.5143   11.1991 N.pl3   1  UNL1       -0.3043
      2 C          61.7586   89.4749   12.6522 C.3     1  UNL1        0.1123
      3 C          62.5501   90.2679   13.6495 C.3     1  UNL1        0.1149
      4 N          63.7118   91.1003   13.1938 N.am    1  UNL1       -0.2747
      5 C          64.5033   91.8932   14.1912 C.2     1  UNL1        0.2442
      6 O          64.1331   91.8539   15.6443 O.2     1  UNL1       -0.2731
      7 C          64.0821   91.1396   11.7408 C.3     1  UNL1        0.1149
      8 C          63.2905   90.3466   10.7434 C.3     1  UNL1        0.1123
      9 C          61.3720   87.2221   10.2382 C.ar    1  UNL1        0.0076
     10 C          60.5805   86.4292    9.2408 C.ar    1  UNL1        0.0279
     11 C          59.7544   87.1354    8.2070 C.ar    1  UNL1        0.1400
     12 F          58.9628   86.3423    7.2097 F       1  UNL1       -0.2042
     13 C          59.7197   88.6345    8.1706 C.ar    1  UNL1        0.0309
     14 C          60.5112   89.4274    9.1679 C.ar    1  UNL1        0.0165
     15 C          61.3374   88.7212   10.2017 C.ar    1  UNL1        0.0453
     16 C          62.1982   86.5159   11.2720 C.3     1  UNL1        0.0781
     17 N          63.0437   87.3074   12.2252 N.3     1  UNL1       -0.2939
     18 H          63.6501   87.9002   11.6584 H       1  UNL1        0.1235
     19 C          63.9270   86.5998   13.2095 C.3     1  UNL1        0.0863
     20 C          64.1754   87.2004   14.5614 C.3     1  UNL1        0.0894
     21 N          63.6244   86.5379   15.7892 N.3     1  UNL1       -0.2715
     22 C          62.6890   86.7216   18.2060 C.3     1  UNL1        0.0188
     23 C          63.0859   87.3716   16.9138 C.3     1  UNL1        0.0722
     24 C          63.6120   85.0414   15.8923 C.3     1  UNL1        0.0722
     25 C          62.4089   84.2684   15.4395 C.3     1  UNL1        0.0188
     26 C          62.1789   85.0183   11.3525 C.3     1  UNL1        0.0203
     27 C          63.2218   84.2150   10.6333 C.3     1  UNL1        0.0017
     28 C          63.9785   83.1443   11.3622 C.3     1  UNL1        0.0001
     29 C          63.5079   84.4824    9.1854 C.3     1  UNL1        0.0001
     30 C          65.6650   92.7255   13.7355 C.3     1  UNL1        0.1564
     31 N          66.9021   92.8124   14.5792 N.am    1  UNL1       -0.2727
     32 C          67.6204   94.0718   14.9639 C.3     1  UNL1        0.0943
     33 C          68.8005   93.6928   15.8088 C.3     1  UNL1        0.0311
     34 C          68.8115   92.1992   15.9463 C.3     1  UNL1        0.0870
     35 C          67.6383   91.6550   15.1864 C.2     1  UNL1        0.2260
     36 O          67.2665   90.2077   15.0565 O.2     1  UNL1       -0.2749
     37 C          65.5895   93.4711   12.4360 C.3     1  UNL1        0.0564
     38 C          66.5677   93.1685   11.3399 C.ar    1  UNL1       -0.0094
     39 C          67.4365   91.9486   11.4256 C.ar    1  UNL1       -0.0025
     40 C          68.4147   91.6460   10.3294 C.ar    1  UNL1        0.0111
     41 C          68.5241   92.5633    9.1476 C.ar    1  UNL1        0.0585
     42 CL         69.5023   92.2607    8.0514 Cl      1  UNL1       -0.0822
     43 C          67.6554   93.7831    9.0619 C.ar    1  UNL1        0.0225
     44 C          66.6772   94.0857   10.1580 C.ar    1  UNL1        0.0546
     45 CL         65.8084   95.3054   10.0724 Cl      1  UNL1       -0.0825
@<TRIPOS>BOND
     1    22    23    1
     2    23    21    1
     3    21    24    1
     4    24    25    1
     5    21    20    1
     6    20    19    1
     7    19    17    1
     8    17    16    1
     9    16    26    1
    10    26    27    1
    11    27    28    1
    12    27    29    1
    13    16     9    1
    14     9    10   ar
    15    10    11   ar
    16    11    12    1
    17    11    13   ar
    18    13    14   ar
    19    14    15   ar
    20    15     1    1
    21     1     2    1
    22     2     3    1
    23     3     4    1
    24     4     5   am
    25     5     6    2
    26     5    30    1
    27    30    37    1
    28    37    38    1
    29    38    39   ar
    30    39    40   ar
    31    40    41   ar
    32    41    42    1
    33    41    43   ar
    34    43    44   ar
    35    44    45    1
    36    30    31    1
    37    31    32    1
    38    32    33    1
    39    33    34    1
    40    34    35    1
    41    35    36    2
    42     4     7    1
    43     7     8    1
    44    15     9   ar
    45     8     1    1
    46    44    38   ar
    47    35    31   am
    48    17    18    1
@<TRIPOS>MOLECULE
*****
 45 48 0 0 0
SMALL
GASTEIGER

@<TRIPOS>ATOM
      1 N          63.3325   85.6811   14.5959 N.pl3   1  UNL1       -0.3043
      2 C          62.8246   86.1836   15.9148 C.3     1  UNL1        0.1123
      3 C          63.0258   87.6198   16.2980 C.3     1  UNL1        0.1149
      4 N          63.7349   88.5535   15.3624 N.am    1  UNL1       -0.2747
      5 C          63.9361   89.9897   15.7456 C.2     1  UNL1        0.2442
      6 O          63.4282   90.4922   17.0645 O.2     1  UNL1       -0.2731
      7 C          64.2428   88.0510   14.0435 C.3     1  UNL1        0.1149
      8 C          64.0416   86.6147   13.6602 C.3     1  UNL1        0.1123
      9 C          62.7179   83.8925   12.8145 C.ar    1  UNL1        0.0076
     10 C          62.5167   82.4564   12.4313 C.ar    1  UNL1        0.0279
     11 C          62.7288   81.3725   13.4463 C.ar    1  UNL1        0.1400
     12 F          62.5276   79.9363   13.0631 F       1  UNL1       -0.2042
     13 C          63.1422   81.7248   14.8445 C.ar    1  UNL1        0.0309
     14 C          63.3434   83.1610   15.2277 C.ar    1  UNL1        0.0165
     15 C          63.1312   84.2449   14.2126 C.ar    1  UNL1        0.0453
     16 C          62.5058   84.9764   11.7994 C.3     1  UNL1        0.0781
     17 N          61.2877   85.8484   11.8767 N.3     1  UNL1       -0.2939
     18 H          60.5026   85.2380   12.1034 H       1  UNL1        0.1235
     19 C          60.8728   86.6644   10.6885 C.3     1  UNL1        0.0863
     20 C          61.3630   88.0741   10.5387 C.3     1  UNL1        0.0894
     21 N          60.4729   89.1170    9.9302 N.3     1  UNL1       -0.2715
     22 C          59.4044   89.8264   12.1896 C.3     1  UNL1        0.0188
     23 C          59.8477   90.1685   10.7981 C.3     1  UNL1        0.0722
     24 C          60.2080   89.1082    8.4537 C.3     1  UNL1        0.0722
     25 C          59.3514   88.0339    7.8519 C.3     1  UNL1        0.0188
     26 C          63.5117   85.1883   10.7071 C.3     1  UNL1        0.0203
     27 C          63.5182   84.2867    9.5083 C.3     1  UNL1        0.0017
     28 C          62.9573   84.7697    8.2036 C.3     1  UNL1        0.0001
     29 C          64.0855   82.9022    9.6142 C.3     1  UNL1        0.0001
     30 C          64.6452   90.9233   14.8100 C.3     1  UNL1        0.1564
     31 N          65.9523   91.5392   15.2128 N.am    1  UNL1       -0.2727
     32 C          67.2942   91.2261   14.6203 C.3     1  UNL1        0.0943
     33 C          68.3182   92.0697   15.3201 C.3     1  UNL1        0.0311
     34 C          67.6091   92.9043   16.3451 C.3     1  UNL1        0.0870
     35 C          66.1468   92.5765   16.2788 C.2     1  UNL1        0.2260
     36 O          65.0685   93.1798   17.1292 O.2     1  UNL1       -0.2749
     37 C          64.0472   91.2410   13.4715 C.3     1  UNL1        0.0564
     38 C          64.7663   92.1586   12.5276 C.ar    1  UNL1       -0.0094
     39 C          65.6860   93.2155   13.0637 C.ar    1  UNL1       -0.0025
     40 C          66.4050   94.1331   12.1198 C.ar    1  UNL1        0.0111
     41 C          66.2045   93.9938   10.6398 C.ar    1  UNL1        0.0585
     42 CL         66.9236   94.9114    9.6959 Cl      1  UNL1       -0.0822
     43 C          65.2849   92.9370   10.1037 C.ar    1  UNL1        0.0225
     44 C          64.5658   92.0194   11.0476 C.ar    1  UNL1        0.0546
     45 CL         63.6462   90.9626   10.5115 Cl      1  UNL1       -0.0825
@<TRIPOS>BOND
     1    22    23    1
     2    23    21    1
     3    21    24    1
     4    24    25    1
     5    21    20    1
     6    20    19    1
     7    19    17    1
     8    17    16    1
     9    16    26    1
    10    26    27    1
    11    27    28    1
    12    27    29    1
    13    16     9    1
    14     9    10   ar
    15    10    11   ar
    16    11    12    1
    17    11    13   ar
    18    13    14   ar
    19    14    15   ar
    20    15     1    1
    21     1     2    1
    22     2     3    1
    23     3     4    1
    24     4     5   am
    25     5     6    2
    26     5    30    1
    27    30    37    1
    28    37    38    1
    29    38    39   ar
    30    39    40   ar
    31    40    41   ar
    32    41    42    1
    33    41    43   ar
    34    43    44   ar
    35    44    45    1
    36    30    31    1
    37    31    32    1
    38    32    33    1
    39    33    34    1
    40    34    35    1
    41    35    36    2
    42     4     7    1
    43     7     8    1
    44    15     9   ar
    45     8     1    1
    46    44    38   ar
    47    35    31   am
    48    17    18    1
@<TRIPOS>MOLECULE
*****
 45 48 0 0 0
SMALL
GASTEIGER

@<TRIPOS>ATOM
      1 N          61.8723   89.4734   10.1347 N.pl3   1  UNL1       -0.3043
      2 C          62.6398   90.5715    9.4601 C.3     1  UNL1        0.1123
      3 C          63.6217   91.3912   10.2437 C.3     1  UNL1        0.1149
      4 N          63.8361   91.1127   11.7020 N.am    1  UNL1       -0.2747
      5 C          64.8180   91.9323   12.4855 C.2     1  UNL1        0.2442
      6 O          65.5855   93.0305   11.8109 O.2     1  UNL1       -0.2731
      7 C          63.0687   90.0145   12.3766 C.3     1  UNL1        0.1149
      8 C          62.0868   89.1949   11.5929 C.3     1  UNL1        0.1123
      9 C          60.9607   87.1560    9.3939 C.ar    1  UNL1        0.0076
     10 C          59.9788   86.3365    8.6102 C.ar    1  UNL1        0.0279
     11 C          58.9266   87.0146    7.7837 C.ar    1  UNL1        0.1400
     12 F          57.9447   86.1950    7.0001 F       1  UNL1       -0.2042
     13 C          58.8564   88.5123    7.7409 C.ar    1  UNL1        0.0309
     14 C          59.8382   89.3319    8.5245 C.ar    1  UNL1        0.0165
     15 C          60.8904   88.6537    9.3510 C.ar    1  UNL1        0.0453
     16 C          62.0128   86.4779   10.2204 C.3     1  UNL1        0.0781
     17 N          61.7746   86.2284   11.6801 N.3     1  UNL1       -0.2939
     18 H          61.7942   87.1380   12.1413 H       1  UNL1        0.1235
     19 C          62.7006   85.3332   12.4489 C.3     1  UNL1        0.0863
     20 C          62.1637   84.4658   13.5488 C.3     1  UNL1        0.0894
     21 N          62.8274   83.1582   13.8644 N.3     1  UNL1       -0.2715
     22 C          61.2967   81.0594   13.8204 C.3     1  UNL1        0.0188
     23 C          62.0686   82.0883   14.5921 C.3     1  UNL1        0.0722
     24 C          64.2500   82.9204   13.4522 C.3     1  UNL1        0.0722
     25 C          64.5679   81.8781   12.4214 C.3     1  UNL1        0.0188
     26 C          63.3032   86.0492    9.5871 C.3     1  UNL1        0.0203
     27 C          63.3735   84.7570    8.8287 C.3     1  UNL1        0.0017
     28 C          62.9006   84.6954    7.4065 C.3     1  UNL1        0.0001
     29 C          63.9168   83.5264    9.4924 C.3     1  UNL1        0.0001
     30 C          65.0325   91.6538   13.9437 C.3     1  UNL1        0.1564
     31 N          66.3655   91.9326   14.5725 N.am    1  UNL1       -0.2727
     32 C          67.7024   91.7773   13.9103 C.3     1  UNL1        0.0943
     33 C          68.7589   92.1644   14.9023 C.3     1  UNL1        0.0311
     34 C          68.0748   92.5591   16.1776 C.3     1  UNL1        0.0870
     35 C          66.5956   92.4159   15.9738 C.2     1  UNL1        0.2260
     36 O          65.5332   92.7050   16.9923 O.2     1  UNL1       -0.2749
     37 C          63.9139   91.0964   14.7733 C.3     1  UNL1        0.0564
     38 C          63.9211   89.6489   15.1666 C.ar    1  UNL1       -0.0094
     39 C          64.6495   88.6458   14.3219 C.ar    1  UNL1       -0.0025
     40 C          64.6567   87.1983   14.7151 C.ar    1  UNL1        0.0111
     41 C          63.9356   86.7539   15.9531 C.ar    1  UNL1        0.0585
     42 CL         63.9428   85.3064   16.3464 Cl      1  UNL1       -0.0822
     43 C          63.2072   87.7569   16.7977 C.ar    1  UNL1        0.0225
     44 C          63.2000   89.2044   16.4044 C.ar    1  UNL1        0.0546
     45 CL         62.4717   90.2074   17.2491 Cl      1  UNL1       -0.0825
@<TRIPOS>BOND
     1    22    23    1
     2    23    21    1
     3    21    24    1
     4    24    25    1
     5    21    20    1
     6    20    19    1
     7    19    17    1
     8    17    16    1
     9    16    26    1
    10    26    27    1
    11    27    28    1
    12    27    29    1
    13    16     9    1
    14     9    10   ar
    15    10    11   ar
    16    11    12    1
    17    11    13   ar
    18    13    14   ar
    19    14    15   ar
    20    15     1    1
    21     1     2    1
    22     2     3    1
    23     3     4    1
    24     4     5   am
    25     5     6    2
    26     5    30    1
    27    30    37    1
    28    37    38    1
    29    38    39   ar
    30    39    40   ar
    31    40    41   ar
    32    41    42    1
    33    41    43   ar
    34    43    44   ar
    35    44    45    1
    36    30    31    1
    37    31    32    1
    38    32    33    1
    39    33    34    1
    40    34    35    1
    41    35    36    2
    42     4     7    1
    43     7     8    1
    44    15     9   ar
    45     8     1    1
    46    44    38   ar
    47    35    31   am
    48    17    18    1
@<TRIPOS>MOLECULE
*****
 45 48 0 0 0
SMALL
GASTEIGER

@<TRIPOS>ATOM
      1 N          63.4067   85.6107   14.4239 N.pl3   1  UNL1       -0.3043
      2 C          62.8644   86.0535   15.7505 C.3     1  UNL1        0.1123
      3 C          63.0207   87.4803   16.1861 C.3     1  UNL1        0.1149
      4 N          63.7192   88.4643   15.2951 N.am    1  UNL1       -0.2747
      5 C          63.8755   89.8911   15.7307 C.2     1  UNL1        0.2442
      6 O          63.3332   90.3340   17.0573 O.2     1  UNL1       -0.2731
      7 C          64.2615   88.0215   13.9685 C.3     1  UNL1        0.1149
      8 C          64.1052   86.5946   13.5329 C.3     1  UNL1        0.1123
      9 C          62.8053   83.8708   12.5905 C.ar    1  UNL1        0.0076
     10 C          62.6491   82.4440   12.1550 C.ar    1  UNL1        0.0279
     11 C          62.9379   81.3302   13.1173 C.ar    1  UNL1        0.1400
     12 F          62.7816   79.9033   12.6817 F       1  UNL1       -0.2042
     13 C          63.3829   81.6431   14.5151 C.ar    1  UNL1        0.0309
     14 C          63.5392   83.0700   14.9506 C.ar    1  UNL1        0.0165
     15 C          63.2504   84.1838   13.9883 C.ar    1  UNL1        0.0453
     16 C          62.5165   84.9846   11.6282 C.3     1  UNL1        0.0781
     17 N          63.4172   85.2104   10.4502 N.3     1  UNL1       -0.2939
     18 H          63.5257   86.2198   10.3517 H       1  UNL1        0.1235
     19 C          63.0325   84.6825    9.0999 C.3     1  UNL1        0.0863
     20 C          62.5609   85.6251    8.0325 C.3     1  UNL1        0.0894
     21 N          61.2344   85.4030    7.3685 N.3     1  UNL1       -0.2715
     22 C          62.4001   84.2431    5.3571 C.3     1  UNL1        0.0188
     23 C          61.1511   84.5840    6.1146 C.3     1  UNL1        0.0722
     24 C          59.9911   86.0000    7.9583 C.3     1  UNL1        0.0722
     25 C          59.6359   87.4287    7.6709 C.3     1  UNL1        0.0188
     26 C          61.3271   85.8726   11.8440 C.3     1  UNL1        0.0203
     27 C          61.2954   87.2443   11.2377 C.3     1  UNL1        0.0017
     28 C          62.5640   87.8771   10.7475 C.3     1  UNL1        0.0001
     29 C          59.9951   87.9831   11.1215 C.3     1  UNL1        0.0001
     30 C          64.5740   90.8751   14.8397 C.3     1  UNL1        0.1564
     31 N          65.8856   91.4687   15.2609 N.am    1  UNL1       -0.2727
     32 C          67.2266   91.1553   14.6664 C.3     1  UNL1        0.0943
     33 C          68.2563   91.9728   15.3886 C.3     1  UNL1        0.0311
     34 C          67.5516   92.7915   16.4294 C.3     1  UNL1        0.0870
     35 C          66.0864   92.4799   16.3505 C.2     1  UNL1        0.2260
     36 O          65.0109   93.0751   17.2101 O.2     1  UNL1       -0.2749
     37 C          63.9609   91.2655   13.5275 C.3     1  UNL1        0.0564
     38 C          64.7152   92.1521   12.5815 C.ar    1  UNL1       -0.0094
     39 C          65.6982   93.1525   13.1137 C.ar    1  UNL1       -0.0025
     40 C          66.4525   94.0391   12.1678 C.ar    1  UNL1        0.0111
     41 C          66.2238   93.9255   10.6896 C.ar    1  UNL1        0.0585
     42 CL         66.9781   94.8121    9.7437 Cl      1  UNL1       -0.0822
     43 C          65.2409   92.9252   10.1575 C.ar    1  UNL1        0.0225
     44 C          64.4866   92.0385   11.1035 C.ar    1  UNL1        0.0546
     45 CL         63.5036   91.0382   10.5713 Cl      1  UNL1       -0.0825
@<TRIPOS>BOND
     1    22    23    1
     2    23    21    1
     3    21    24    1
     4    24    25    1
     5    21    20    1
     6    20    19    1
     7    19    17    1
     8    17    16    1
     9    16    26    1
    10    26    27    1
    11    27    28    1
    12    27    29    1
    13    16     9    1
    14     9    10   ar
    15    10    11   ar
    16    11    12    1
    17    11    13   ar
    18    13    14   ar
    19    14    15   ar
    20    15     1    1
    21     1     2    1
    22     2     3    1
    23     3     4    1
    24     4     5   am
    25     5     6    2
    26     5    30    1
    27    30    37    1
    28    37    38    1
    29    38    39   ar
    30    39    40   ar
    31    40    41   ar
    32    41    42    1
    33    41    43   ar
    34    43    44   ar
    35    44    45    1
    36    30    31    1
    37    31    32    1
    38    32    33    1
    39    33    34    1
    40    34    35    1
    41    35    36    2
    42     4     7    1
    43     7     8    1
    44    15     9   ar
    45     8     1    1
    46    44    38   ar
    47    35    31   am
    48    17    18    1
@<TRIPOS>MOLECULE
*****
 45 48 0 0 0
SMALL
GASTEIGER

@<TRIPOS>ATOM
      1 N          63.8483   91.5469   11.2620 N.pl3   1  UNL1       -0.3043
      2 C          62.6531   91.4238   12.1600 C.3     1  UNL1        0.1123
      3 C          61.8134   90.1814   12.1249 C.3     1  UNL1        0.1149
      4 N          62.1689   89.0620   11.1917 N.am    1  UNL1       -0.2747
      5 C          61.3292   87.8196   11.1566 C.2     1  UNL1        0.2442
      6 O          60.1340   87.6965   12.0546 O.2     1  UNL1       -0.2731
      7 C          63.3640   89.1851   10.2937 C.3     1  UNL1        0.1149
      8 C          64.2037   90.4276   10.3288 C.3     1  UNL1        0.1123
      9 C          65.5771   93.0607   12.4744 C.ar    1  UNL1        0.0076
     10 C          66.4167   94.3031   12.5095 C.ar    1  UNL1        0.0279
     11 C          66.3673   95.2743   11.3673 C.ar    1  UNL1        0.1400
     12 F          67.2070   96.5168   11.4025 F       1  UNL1       -0.2042
     13 C          65.4782   95.0030   10.1901 C.ar    1  UNL1        0.0309
     14 C          64.6386   93.7605   10.1550 C.ar    1  UNL1        0.0165
     15 C          64.6880   92.7894   11.2971 C.ar    1  UNL1        0.0453
     16 C          65.6265   92.0895   13.6165 C.3     1  UNL1        0.0781
     17 N          64.3578   91.6628   14.2935 N.3     1  UNL1       -0.2939
     18 H          64.0256   92.4649   14.8289 H       1  UNL1        0.1235
     19 C          64.3648   90.4905   15.2292 C.3     1  UNL1        0.0863
     20 C          64.1983   89.1002   14.6910 C.3     1  UNL1        0.0894
     21 N          63.7361   87.9963   15.5952 N.3     1  UNL1       -0.2715
     22 C          65.2903   86.0313   14.9071 C.3     1  UNL1        0.0188
     23 C          63.9160   86.5650   15.1840 C.3     1  UNL1        0.0722
     24 C          63.0939   88.3236   16.9107 C.3     1  UNL1        0.0722
     25 C          62.7364   87.2231   17.8652 C.3     1  UNL1        0.0188
     26 C          66.9445   91.5451   14.0816 C.3     1  UNL1        0.0203
     27 C          67.7366   92.2832   15.1198 C.3     1  UNL1        0.0017
     28 C          67.0589   92.7958   16.3560 C.3     1  UNL1        0.0001
     29 C          69.2062   92.5087   14.9218 C.3     1  UNL1        0.0001
     30 C          61.6846   86.7003   10.2234 C.3     1  UNL1        0.1564
     31 N          60.8393   86.4360    9.0129 N.am    1  UNL1       -0.2727
     32 C          59.4262   86.8951    8.8068 C.3     1  UNL1        0.0943
     33 C          58.9722   86.4090    7.4624 C.3     1  UNL1        0.0311
     34 C          60.1046   85.6494    6.8375 C.3     1  UNL1        0.0870
     35 C          61.2586   85.6660    7.7957 C.2     1  UNL1        0.2260
     36 O          62.5968   85.0253    7.5755 O.2     1  UNL1       -0.2749
     37 C          62.8855   85.8453   10.5009 C.3     1  UNL1        0.0564
     38 C          62.7806   84.6914   11.4536 C.ar    1  UNL1       -0.0094
     39 C          62.1601   84.8886   12.8049 C.ar    1  UNL1       -0.0025
     40 C          62.0552   83.7347   13.7576 C.ar    1  UNL1        0.0111
     41 C          62.5709   82.3837   13.3590 C.ar    1  UNL1        0.0585
     42 CL         62.4661   81.2298   14.3117 Cl      1  UNL1       -0.0822
     43 C          63.1915   82.1866   12.0077 C.ar    1  UNL1        0.0225
     44 C          63.2963   83.3404   11.0550 C.ar    1  UNL1        0.0546
     45 CL         63.9169   83.1433    9.7037 Cl      1  UNL1       -0.0825
@<TRIPOS>BOND
     1    22    23    1
     2    23    21    1
     3    21    24    1
     4    24    25    1
     5    21    20    1
     6    20    19    1
     7    19    17    1
     8    17    16    1
     9    16    26    1
    10    26    27    1
    11    27    28    1
    12    27    29    1
    13    16     9    1
    14     9    10   ar
    15    10    11   ar
    16    11    12    1
    17    11    13   ar
    18    13    14   ar
    19    14    15   ar
    20    15     1    1
    21     1     2    1
    22     2     3    1
    23     3     4    1
    24     4     5   am
    25     5     6    2
    26     5    30    1
    27    30    37    1
    28    37    38    1
    29    38    39   ar
    30    39    40   ar
    31    40    41   ar
    32    41    42    1
    33    41    43   ar
    34    43    44   ar
    35    44    45    1
    36    30    31    1
    37    31    32    1
    38    32    33    1
    39    33    34    1
    40    34    35    1
    41    35    36    2
    42     4     7    1
    43     7     8    1
    44    15     9   ar
    45     8     1    1
    46    44    38   ar
    47    35    31   am
    48    17    18    1
@<TRIPOS>MOLECULE
*****
 45 48 0 0 0
SMALL
GASTEIGER

@<TRIPOS>ATOM
      1 N          61.3990   87.2883   11.0879 N.pl3   1  UNL1       -0.3043
      2 C          61.9749   86.9528    9.7441 C.3     1  UNL1        0.1123
      3 C          62.7588   85.6874    9.5588 C.3     1  UNL1        0.1149
      4 N          62.9668   84.7576   10.7174 N.am    1  UNL1       -0.2747
      5 C          63.7507   83.4922   10.5321 C.2     1  UNL1        0.2442
      6 O          64.3266   83.1566    9.1883 O.2     1  UNL1       -0.2731
      7 C          62.3909   85.0931   12.0611 C.3     1  UNL1        0.1149
      8 C          61.6070   86.3586   12.2464 C.3     1  UNL1        0.1123
      9 C          61.3277   89.8702   11.3695 C.ar    1  UNL1        0.0076
     10 C          60.5438   91.1355   11.5547 C.ar    1  UNL1        0.0279
     11 C          59.0473   91.0845   11.6435 C.ar    1  UNL1        0.1400
     12 F          58.2634   92.3499   11.8288 F       1  UNL1       -0.2042
     13 C          58.3347   89.7681   11.5471 C.ar    1  UNL1        0.0309
     14 C          59.1186   88.5028   11.3619 C.ar    1  UNL1        0.0165
     15 C          60.6151   88.5538   11.2731 C.ar    1  UNL1        0.0453
     16 C          62.8242   89.9212   11.2807 C.3     1  UNL1        0.0781
     17 N          63.4854   90.7965   10.2577 N.3     1  UNL1       -0.2939
     18 H          64.2520   90.2551    9.8582 H       1  UNL1        0.1235
     19 C          64.0571   92.1229   10.6624 C.3     1  UNL1        0.0863
     20 C          65.5427   92.2961   10.7761 C.3     1  UNL1        0.0894
     21 N          66.1063   93.4890   11.4898 N.3     1  UNL1       -0.2715
     22 C          66.0387   96.0748   11.2478 C.3     1  UNL1        0.0188
     23 C          66.4471   94.7311   10.7210 C.3     1  UNL1        0.0722
     24 C          66.3292   93.4397   12.9724 C.3     1  UNL1        0.0722
     25 C          67.1494   92.3358   13.5713 C.3     1  UNL1        0.0188
     26 C          63.6595   89.0969   12.2149 C.3     1  UNL1        0.0203
     27 C          63.8893   89.5606   13.6228 C.3     1  UNL1        0.0017
     28 C          64.3023   88.5778   14.6782 C.3     1  UNL1        0.0001
     29 C          63.7063   91.0070   13.9754 C.3     1  UNL1        0.0001
     30 C          63.9586   82.5624   11.6906 C.3     1  UNL1        0.1564
     31 N          63.3657   81.1849   11.6625 N.am    1  UNL1       -0.2727
     32 C          63.0316   80.3937   10.4328 C.3     1  UNL1        0.0943
     33 C          62.4621   79.0765   10.8695 C.3     1  UNL1        0.0311
     34 C          62.4443   79.0536   12.3692 C.3     1  UNL1        0.0870
     35 C          63.0027   80.3566   12.8594 C.2     1  UNL1        0.2260
     36 O          63.1690   80.7605   14.2943 O.2     1  UNL1       -0.2749
     37 C          64.7596   83.0101   12.8773 C.3     1  UNL1        0.0564
     38 C          64.0911   83.7517   13.9967 C.ar    1  UNL1       -0.0094
     39 C          62.6637   83.4524   14.3476 C.ar    1  UNL1       -0.0025
     40 C          61.9952   84.1940   15.4670 C.ar    1  UNL1        0.0111
     41 C          62.7541   85.2348   16.2356 C.ar    1  UNL1        0.0585
     42 CL         62.0856   85.9764   17.3551 Cl      1  UNL1       -0.0822
     43 C          64.1814   85.5341   15.8848 C.ar    1  UNL1        0.0225
     44 C          64.8499   84.7925   14.7653 C.ar    1  UNL1        0.0546
     45 CL         66.2772   85.0918   14.4145 Cl      1  UNL1       -0.0825
@<TRIPOS>BOND
     1    22    23    1
     2    23    21    1
     3    21    24    1
     4    24    25    1
     5    21    20    1
     6    20    19    1
     7    19    17    1
     8    17    16    1
     9    16    26    1
    10    26    27    1
    11    27    28    1
    12    27    29    1
    13    16     9    1
    14     9    10   ar
    15    10    11   ar
    16    11    12    1
    17    11    13   ar
    18    13    14   ar
    19    14    15   ar
    20    15     1    1
    21     1     2    1
    22     2     3    1
    23     3     4    1
    24     4     5   am
    25     5     6    2
    26     5    30    1
    27    30    37    1
    28    37    38    1
    29    38    39   ar
    30    39    40   ar
    31    40    41   ar
    32    41    42    1
    33    41    43   ar
    34    43    44   ar
    35    44    45    1
    36    30    31    1
    37    31    32    1
    38    32    33    1
    39    33    34    1
    40    34    35    1
    41    35    36    2
    42     4     7    1
    43     7     8    1
    44    15     9   ar
    45     8     1    1
    46    44    38   ar
    47    35    31   am
    48    17    18    1
