@<TRIPOS>MOLECULE
*****
 26 28 0 0 0
SMALL
GASTEIGER

@<TRIPOS>ATOM
      1 C          63.3527   90.0458   12.5601 C.ar    1  UNL1        0.0576
      2 C          63.0590   89.4911   13.9224 C.ar    1  UNL1        0.0161
      3 C          63.6770   90.1183   15.1368 C.ar    1  UNL1        0.0609
      4 CL         63.3833   89.5635   16.4992 Cl      1  UNL1       -0.0821
      5 C          64.5887   91.3002   14.9888 C.ar    1  UNL1        0.0489
      6 C          64.8824   91.8549   13.6265 C.ar    1  UNL1        0.1464
      7 C          64.2644   91.2277   12.4121 C.ar    1  UNL1        0.0421
      8 N          62.1526   88.0387   11.4282 N.am    1  UNL1       -0.2658
      9 C          62.7347   89.4186   11.3457 C.2     1  UNL1        0.2507
     10 O          62.6988   90.1715   10.0488 O.2     1  UNL1       -0.2698
     11 H          62.1762   87.5446   12.2794 H       1  UNL1        0.1566
     12 C          62.5208   84.9001    7.3034 C.3     1  UNL1        0.0521
     13 C          61.7188   85.8422    8.1514 C.ar    1  UNL1        0.0608
     14 C          60.2987   86.1571    7.7849 C.ar    1  UNL1        0.0148
     15 C          59.4966   87.0993    8.6329 C.ar    1  UNL1        0.0041
     16 C          60.1146   87.7264    9.8473 C.ar    1  UNL1        0.0345
     17 C          61.5346   87.4115   10.2137 C.ar    1  UNL1        0.1340
     18 N          62.3367   86.4694    9.3657 N.ar    1  UNL1       -0.2348
     19 O          65.7941   93.0368   13.4785 O.3     1  UNL1       -0.4518
     20 C          66.3382   93.3999   12.1287 C.ar    1  UNL1        0.1666
     21 C          66.1810   94.7979   11.6080 C.ar    1  UNL1        0.1364
     22 N          66.7251   95.1610   10.2582 N.ar    1  UNL1       -0.2368
     23 C          67.4264   94.1263    9.4290 C.ar    1  UNL1        0.1286
     24 C          67.5836   92.7284    9.9497 C.ar    1  UNL1        0.1623
     25 F          68.2849   91.6937    9.1205 F       1  UNL1       -0.2024
     26 C          67.0395   92.3652   11.2996 C.ar    1  UNL1        0.0703
@<TRIPOS>BOND
     1    12    13    1
     2    13    14   ar
     3    14    15   ar
     4    15    16   ar
     5    16    17   ar
     6    17     8    1
     7     8     9   am
     8     9    10    2
     9     9     1    1
    10     1     2   ar
    11     2     3   ar
    12     3     4    1
    13     3     5   ar
    14     5     6   ar
    15     6    19    1
    16    19    20    1
    17    20    21   ar
    18    21    22   ar
    19    22    23   ar
    20    23    24   ar
    21    24    25    1
    22    24    26   ar
    23     6     7   ar
    24    17    18   ar
    25    18    13   ar
    26     7     1   ar
    27    26    20   ar
    28     8    11    1
@<TRIPOS>MOLECULE
*****
 26 28 0 0 0
SMALL
GASTEIGER

@<TRIPOS>ATOM
      1 C          61.5522   88.0675   10.8859 C.ar    1  UNL1        0.0576
      2 C          60.2379   88.6437   11.3224 C.ar    1  UNL1        0.0161
      3 C          60.0415   90.1305   11.3454 C.ar    1  UNL1        0.0609
      4 CL         58.7272   90.7068   11.7820 Cl      1  UNL1       -0.0821
      5 C          61.1594   91.0412   10.9317 C.ar    1  UNL1        0.0489
      6 C          62.4737   90.4650   10.4952 C.ar    1  UNL1        0.1464
      7 C          62.6701   88.9781   10.4722 C.ar    1  UNL1        0.0421
      8 N          62.6250   85.9239   11.8880 N.am    1  UNL1       -0.2658
      9 C          61.7487   86.5805   10.8629 C.2     1  UNL1        0.2507
     10 O          61.0688   85.7503    9.8149 O.2     1  UNL1       -0.2698
     11 H          63.0713   86.4688   12.5758 H       1  UNL1        0.1566
     12 C          61.9945   81.2667   14.1046 C.3     1  UNL1        0.0521
     13 C          62.5062   82.1084   12.9733 C.ar    1  UNL1        0.0608
     14 C          63.2144   81.4632   11.8192 C.ar    1  UNL1        0.0148
     15 C          63.7261   82.3048   10.6879 C.ar    1  UNL1        0.0041
     16 C          63.5297   83.7917   10.7108 C.ar    1  UNL1        0.0345
     17 C          62.8215   84.4369   11.8650 C.ar    1  UNL1        0.1340
     18 N          62.3098   83.5953   12.9963 N.ar    1  UNL1       -0.2348
     19 O          63.5915   91.3757   10.0815 O.3     1  UNL1       -0.4518
     20 C          64.5442   91.9088   11.1101 C.ar    1  UNL1        0.1666
     21 C          65.5413   92.9643   10.7333 C.ar    1  UNL1        0.1364
     22 N          66.4940   93.4974   11.7620 N.ar    1  UNL1       -0.2368
     23 C          66.4497   92.9751   13.1674 C.ar    1  UNL1        0.1286
     24 C          65.4527   91.9197   13.5442 C.ar    1  UNL1        0.1623
     25 F          65.4084   91.3974   14.9496 F       1  UNL1       -0.2024
     26 C          64.4999   91.3865   12.5156 C.ar    1  UNL1        0.0703
@<TRIPOS>BOND
     1    12    13    1
     2    13    14   ar
     3    14    15   ar
     4    15    16   ar
     5    16    17   ar
     6    17     8    1
     7     8     9   am
     8     9    10    2
     9     9     1    1
    10     1     2   ar
    11     2     3   ar
    12     3     4    1
    13     3     5   ar
    14     5     6   ar
    15     6    19    1
    16    19    20    1
    17    20    21   ar
    18    21    22   ar
    19    22    23   ar
    20    23    24   ar
    21    24    25    1
    22    24    26   ar
    23     6     7   ar
    24    17    18   ar
    25    18    13   ar
    26     7     1   ar
    27    26    20   ar
    28     8    11    1
@<TRIPOS>MOLECULE
*****
 26 28 0 0 0
SMALL
GASTEIGER

@<TRIPOS>ATOM
      1 C          63.5225   88.2215   13.0459 C.ar    1  UNL1        0.0576
      2 C          63.0132   88.7577   11.7409 C.ar    1  UNL1        0.0161
      3 C          62.9960   90.2370   11.4935 C.ar    1  UNL1        0.0609
      4 CL         62.4867   90.7733   10.1884 Cl      1  UNL1       -0.0821
      5 C          63.4881   91.1801   12.5510 C.ar    1  UNL1        0.0489
      6 C          63.9974   90.6439   13.8560 C.ar    1  UNL1        0.1464
      7 C          64.0146   89.1646   14.1035 C.ar    1  UNL1        0.0421
      8 N          62.6150   85.8428   12.5280 N.am    1  UNL1       -0.2658
      9 C          63.5398   86.7421   13.2934 C.2     1  UNL1        0.2507
     10 O          64.4818   86.1621   14.3064 O.2     1  UNL1       -0.2698
     11 H          61.9966   86.2235   11.8631 H       1  UNL1        0.1566
     12 C          63.2151   80.9920   10.7646 C.3     1  UNL1        0.0521
     13 C          62.9323   81.9380   11.8937 C.ar    1  UNL1        0.0608
     14 C          62.6667   81.4048   13.2703 C.ar    1  UNL1        0.0148
     15 C          62.3838   82.3508   14.3995 C.ar    1  UNL1        0.0041
     16 C          62.3666   83.8301   14.1520 C.ar    1  UNL1        0.0345
     17 C          62.6322   84.3634   12.7755 C.ar    1  UNL1        0.1340
     18 N          62.9150   83.4173   11.6463 N.ar    1  UNL1       -0.2348
     19 O          64.4894   91.5870   14.9136 O.3     1  UNL1       -0.4518
     20 C          65.9394   91.9681   14.9629 C.ar    1  UNL1        0.1666
     21 C          66.4727   92.7396   16.1335 C.ar    1  UNL1        0.1364
     22 N          67.9226   93.1207   16.1829 N.ar    1  UNL1       -0.2368
     23 C          68.8393   92.7303   15.0616 C.ar    1  UNL1        0.1286
     24 C          68.3060   91.9588   13.8909 C.ar    1  UNL1        0.1623
     25 F          69.2227   91.5684   12.7696 F       1  UNL1       -0.2024
     26 C          66.8560   91.5777   13.8416 C.ar    1  UNL1        0.0703
@<TRIPOS>BOND
     1    12    13    1
     2    13    14   ar
     3    14    15   ar
     4    15    16   ar
     5    16    17   ar
     6    17     8    1
     7     8     9   am
     8     9    10    2
     9     9     1    1
    10     1     2   ar
    11     2     3   ar
    12     3     4    1
    13     3     5   ar
    14     5     6   ar
    15     6    19    1
    16    19    20    1
    17    20    21   ar
    18    21    22   ar
    19    22    23   ar
    20    23    24   ar
    21    24    25    1
    22    24    26   ar
    23     6     7   ar
    24    17    18   ar
    25    18    13   ar
    26     7     1   ar
    27    26    20   ar
    28     8    11    1
@<TRIPOS>MOLECULE
*****
 26 28 0 0 0
SMALL
GASTEIGER

@<TRIPOS>ATOM
      1 C          63.6737   86.6562   15.1868 C.ar    1  UNL1        0.0576
      2 C          63.2885   86.3794   16.6098 C.ar    1  UNL1        0.0161
      3 C          63.0262   87.5177   17.5507 C.ar    1  UNL1        0.0609
      4 CL         62.6410   87.2409   18.9738 Cl      1  UNL1       -0.0821
      5 C          63.1491   88.9328   17.0686 C.ar    1  UNL1        0.0489
      6 C          63.5343   89.2096   15.6456 C.ar    1  UNL1        0.1464
      7 C          63.7966   88.0713   14.7047 C.ar    1  UNL1        0.0421
      8 N          62.8597   85.0563   13.3084 N.am    1  UNL1       -0.2658
      9 C          63.9360   85.5178   14.2457 C.2     1  UNL1        0.2507
     10 O          65.2746   84.8410   14.2420 O.2     1  UNL1       -0.2698
     11 H          61.9811   85.5005   13.3109 H       1  UNL1        0.1566
     12 C          62.6618   79.9788   12.2222 C.3     1  UNL1        0.0521
     13 C          63.0230   81.3793   11.8244 C.ar    1  UNL1        0.0608
     14 C          63.6465   81.6414   10.4855 C.ar    1  UNL1        0.0148
     15 C          64.0077   83.0418   10.0876 C.ar    1  UNL1        0.0041
     16 C          63.7455   84.1801   11.0286 C.ar    1  UNL1        0.0345
     17 C          63.1220   83.9180   12.3674 C.ar    1  UNL1        0.1340
     18 N          62.7608   82.5176   12.7653 N.ar    1  UNL1       -0.2348
     19 O          63.6572   90.6247   15.1636 O.3     1  UNL1       -0.4518
     20 C          64.9804   91.3279   15.2315 C.ar    1  UNL1        0.1666
     21 C          65.2788   92.2561   16.3716 C.ar    1  UNL1        0.1364
     22 N          66.6020   92.9593   16.4395 N.ar    1  UNL1       -0.2368
     23 C          67.6268   92.7344   15.3675 C.ar    1  UNL1        0.1286
     24 C          67.3284   91.8063   14.2275 C.ar    1  UNL1        0.1623
     25 F          68.3532   91.5815   13.1555 F       1  UNL1       -0.2024
     26 C          66.0052   91.1031   14.1595 C.ar    1  UNL1        0.0703
@<TRIPOS>BOND
     1    12    13    1
     2    13    14   ar
     3    14    15   ar
     4    15    16   ar
     5    16    17   ar
     6    17     8    1
     7     8     9   am
     8     9    10    2
     9     9     1    1
    10     1     2   ar
    11     2     3   ar
    12     3     4    1
    13     3     5   ar
    14     5     6   ar
    15     6    19    1
    16    19    20    1
    17    20    21   ar
    18    21    22   ar
    19    22    23   ar
    20    23    24   ar
    21    24    25    1
    22    24    26   ar
    23     6     7   ar
    24    17    18   ar
    25    18    13   ar
    26     7     1   ar
    27    26    20   ar
    28     8    11    1
@<TRIPOS>MOLECULE
*****
 26 28 0 0 0
SMALL
GASTEIGER

@<TRIPOS>ATOM
      1 C          63.2268   90.3066   11.4635 C.ar    1  UNL1        0.0576
      2 C          64.0702   91.4721   11.0389 C.ar    1  UNL1        0.0161
      3 C          64.9188   92.1900   12.0461 C.ar    1  UNL1        0.0609
      4 CL         65.7623   93.3555   11.6215 Cl      1  UNL1       -0.0821
      5 C          64.9239   91.7426   13.4778 C.ar    1  UNL1        0.0489
      6 C          64.0805   90.5772   13.9023 C.ar    1  UNL1        0.1464
      7 C          63.2319   89.8592   12.8952 C.ar    1  UNL1        0.0421
      8 N          62.3230   88.0896   10.4545 N.am    1  UNL1       -0.2658
      9 C          62.3781   89.5886   10.4564 C.2     1  UNL1        0.2507
     10 O          61.5846   90.3695    9.4512 O.2     1  UNL1       -0.2698
     11 H          62.8439   87.5770   11.1142 H       1  UNL1        0.1566
     12 C          61.8660   84.6334    6.6014 C.3     1  UNL1        0.0521
     13 C          61.2459   85.6435    7.5208 C.ar    1  UNL1        0.0608
     14 C          59.7773   85.9354    7.4331 C.ar    1  UNL1        0.0148
     15 C          59.1572   86.9455    8.3525 C.ar    1  UNL1        0.0041
     16 C          60.0057   87.6635    9.3596 C.ar    1  UNL1        0.0345
     17 C          61.4744   87.3715    9.4473 C.ar    1  UNL1        0.1340
     18 N          62.0945   86.3615    8.5279 N.ar    1  UNL1       -0.2348
     19 O          64.0856   90.1298   15.3341 O.3     1  UNL1       -0.4518
     20 C          63.8617   88.6850   15.6691 C.ar    1  UNL1        0.1666
     21 C          63.0203   88.3113   16.8534 C.ar    1  UNL1        0.1364
     22 N          62.7964   86.8665   17.1885 N.ar    1  UNL1       -0.2368
     23 C          63.4139   85.7952   16.3393 C.ar    1  UNL1        0.1286
     24 C          64.2553   86.1688   15.1550 C.ar    1  UNL1        0.1623
     25 F          64.8728   85.0976   14.3058 F       1  UNL1       -0.2024
     26 C          64.4792   87.6137   14.8199 C.ar    1  UNL1        0.0703
@<TRIPOS>BOND
     1    12    13    1
     2    13    14   ar
     3    14    15   ar
     4    15    16   ar
     5    16    17   ar
     6    17     8    1
     7     8     9   am
     8     9    10    2
     9     9     1    1
    10     1     2   ar
    11     2     3   ar
    12     3     4    1
    13     3     5   ar
    14     5     6   ar
    15     6    19    1
    16    19    20    1
    17    20    21   ar
    18    21    22   ar
    19    22    23   ar
    20    23    24   ar
    21    24    25    1
    22    24    26   ar
    23     6     7   ar
    24    17    18   ar
    25    18    13   ar
    26     7     1   ar
    27    26    20   ar
    28     8    11    1
@<TRIPOS>MOLECULE
*****
 26 28 0 0 0
SMALL
GASTEIGER

@<TRIPOS>ATOM
      1 C          64.0722   88.2758   15.1964 C.ar    1  UNL1        0.0576
      2 C          63.3117   88.1828   16.4860 C.ar    1  UNL1        0.0161
      3 C          63.1032   86.8487   17.1391 C.ar    1  UNL1        0.0609
      4 CL         62.3427   86.7556   18.4287 Cl      1  UNL1       -0.0821
      5 C          63.6553   85.6076   16.5027 C.ar    1  UNL1        0.0489
      6 C          64.4158   85.7007   15.2132 C.ar    1  UNL1        0.1464
      7 C          64.6243   87.0348   14.5601 C.ar    1  UNL1        0.0421
      8 N          65.6350   90.2543   14.5692 N.am    1  UNL1       -0.2658
      9 C          64.2808   89.6100   14.5432 C.2     1  UNL1        0.2507
     10 O          63.1349   90.2998   13.8641 O.2     1  UNL1       -0.2698
     11 H          66.3871   89.8016   15.0149 H       1  UNL1        0.1566
     12 C          65.3325   93.3080   10.3759 C.3     1  UNL1        0.0521
     13 C          65.6923   93.1153   11.8193 C.ar    1  UNL1        0.0608
     14 C          66.2605   94.2566   12.6095 C.ar    1  UNL1        0.0148
     15 C          66.6203   94.0638   14.0529 C.ar    1  UNL1        0.0041
     16 C          66.4118   92.7298   14.7061 C.ar    1  UNL1        0.0345
     17 C          65.8436   91.5885   13.9160 C.ar    1  UNL1        0.1340
     18 N          65.4838   91.7812   12.4725 N.ar    1  UNL1       -0.2348
     19 O          64.9679   84.4596   14.5769 O.3     1  UNL1       -0.4518
     20 C          64.0583   83.5346   13.8239 C.ar    1  UNL1        0.1666
     21 C          64.2149   83.3713   12.3410 C.ar    1  UNL1        0.1364
     22 N          63.3053   82.4463   11.5881 N.ar    1  UNL1       -0.2368
     23 C          62.2391   81.6845   12.3180 C.ar    1  UNL1        0.1286
     24 C          62.0824   81.8477   13.8008 C.ar    1  UNL1        0.1623
     25 F          61.0161   81.0859   14.5307 F       1  UNL1       -0.2024
     26 C          62.9920   82.7727   14.5538 C.ar    1  UNL1        0.0703
@<TRIPOS>BOND
     1    12    13    1
     2    13    14   ar
     3    14    15   ar
     4    15    16   ar
     5    16    17   ar
     6    17     8    1
     7     8     9   am
     8     9    10    2
     9     9     1    1
    10     1     2   ar
    11     2     3   ar
    12     3     4    1
    13     3     5   ar
    14     5     6   ar
    15     6    19    1
    16    19    20    1
    17    20    21   ar
    18    21    22   ar
    19    22    23   ar
    20    23    24   ar
    21    24    25    1
    22    24    26   ar
    23     6     7   ar
    24    17    18   ar
    25    18    13   ar
    26     7     1   ar
    27    26    20   ar
    28     8    11    1
@<TRIPOS>MOLECULE
*****
 26 28 0 0 0
SMALL
GASTEIGER

@<TRIPOS>ATOM
      1 C          62.3689   89.5850   10.7135 C.ar    1  UNL1        0.0576
      2 C          61.5257   89.7851    9.4892 C.ar    1  UNL1        0.0161
      3 C          60.5796   88.7087    9.0461 C.ar    1  UNL1        0.0609
      4 CL         59.7364   88.9087    7.8218 Cl      1  UNL1       -0.0821
      5 C          60.4767   87.4324    9.8274 C.ar    1  UNL1        0.0489
      6 C          61.3199   87.2324   11.0517 C.ar    1  UNL1        0.1464
      7 C          62.2660   88.3087   11.4948 C.ar    1  UNL1        0.0421
      8 N          63.8985   90.6250   12.5380 N.am    1  UNL1       -0.2658
      9 C          63.3151   90.6614   11.1567 C.2     1  UNL1        0.2507
     10 O          63.6778   91.7740   10.2183 O.2     1  UNL1       -0.2698
     11 H          63.6604   89.8948   13.1539 H       1  UNL1        0.1566
     12 C          66.8321   92.7945   16.2378 C.3     1  UNL1        0.0521
     13 C          66.3114   92.7861   14.8310 C.ar    1  UNL1        0.0608
     14 C          66.7370   93.8539   13.8675 C.ar    1  UNL1        0.0148
     15 C          66.2163   93.8455   12.4607 C.ar    1  UNL1        0.0041
     16 C          65.2702   92.7693   12.0176 C.ar    1  UNL1        0.0345
     17 C          64.8447   91.7014   12.9812 C.ar    1  UNL1        0.1340
     18 N          65.3653   91.7098   14.3879 N.ar    1  UNL1       -0.2348
     19 O          61.2169   85.9560   11.8330 O.3     1  UNL1       -0.4518
     20 C          62.4051   85.0474   11.9451 C.ar    1  UNL1        0.1666
     21 C          63.1259   84.9134   13.2538 C.ar    1  UNL1        0.1364
     22 N          64.3141   84.0048   13.3659 N.ar    1  UNL1       -0.2368
     23 C          64.7815   83.2302   12.1695 C.ar    1  UNL1        0.1286
     24 C          64.0607   83.3642   10.8609 C.ar    1  UNL1        0.1623
     25 F          64.5281   82.5895    9.6644 F       1  UNL1       -0.2024
     26 C          62.8725   84.2728   10.7487 C.ar    1  UNL1        0.0703
@<TRIPOS>BOND
     1    12    13    1
     2    13    14   ar
     3    14    15   ar
     4    15    16   ar
     5    16    17   ar
     6    17     8    1
     7     8     9   am
     8     9    10    2
     9     9     1    1
    10     1     2   ar
    11     2     3   ar
    12     3     4    1
    13     3     5   ar
    14     5     6   ar
    15     6    19    1
    16    19    20    1
    17    20    21   ar
    18    21    22   ar
    19    22    23   ar
    20    23    24   ar
    21    24    25    1
    22    24    26   ar
    23     6     7   ar
    24    17    18   ar
    25    18    13   ar
    26     7     1   ar
    27    26    20   ar
    28     8    11    1
@<TRIPOS>MOLECULE
*****
 26 28 0 0 0
SMALL
GASTEIGER

@<TRIPOS>ATOM
      1 C          62.9858   88.0080   12.1147 C.ar    1  UNL1        0.0576
      2 C          62.3153   88.5049   10.8683 C.ar    1  UNL1        0.0161
      3 C          62.1711   89.9790   10.6311 C.ar    1  UNL1        0.0609
      4 CL         61.5006   90.4760    9.3846 Cl      1  UNL1       -0.0821
      5 C          62.6974   90.9561   11.6401 C.ar    1  UNL1        0.0489
      6 C          63.3678   90.4592   12.8865 C.ar    1  UNL1        0.1464
      7 C          63.5120   88.9851   13.1238 C.ar    1  UNL1        0.0421
      8 N          62.7022   85.5588   11.2957 N.am    1  UNL1       -0.2658
      9 C          63.1300   86.5339   12.3521 C.2     1  UNL1        0.2507
     10 O          63.7020   86.0350   13.6458 O.2     1  UNL1       -0.2698
     11 H          62.3267   85.8862   10.4465 H       1  UNL1        0.1566
     12 C          61.8056   81.3641   14.2284 C.3     1  UNL1        0.0521
     13 C          62.3981   81.9874   12.9994 C.ar    1  UNL1        0.0608
     14 C          63.1348   81.1366   12.0077 C.ar    1  UNL1        0.0148
     15 C          63.7273   81.7598   10.7787 C.ar    1  UNL1        0.0041
     16 C          63.5831   83.2339   10.5413 C.ar    1  UNL1        0.0345
     17 C          62.8464   84.0847   11.5330 C.ar    1  UNL1        0.1340
     18 N          62.2539   83.4614   12.7620 N.ar    1  UNL1       -0.2348
     19 O          63.8941   91.4363   13.8956 O.3     1  UNL1       -0.4518
     20 C          65.3641   91.7271   13.9622 C.ar    1  UNL1        0.1666
     21 C          66.1306   92.0096   12.7041 C.ar    1  UNL1        0.1364
     22 N          67.6006   92.3004   12.7707 N.ar    1  UNL1       -0.2368
     23 C          68.3042   92.3088   14.0954 C.ar    1  UNL1        0.1286
     24 C          67.5378   92.0263   15.3535 C.ar    1  UNL1        0.1623
     25 F          68.2414   92.0347   16.6782 F       1  UNL1       -0.2024
     26 C          66.0677   91.7355   15.2869 C.ar    1  UNL1        0.0703
@<TRIPOS>BOND
     1    12    13    1
     2    13    14   ar
     3    14    15   ar
     4    15    16   ar
     5    16    17   ar
     6    17     8    1
     7     8     9   am
     8     9    10    2
     9     9     1    1
    10     1     2   ar
    11     2     3   ar
    12     3     4    1
    13     3     5   ar
    14     5     6   ar
    15     6    19    1
    16    19    20    1
    17    20    21   ar
    18    21    22   ar
    19    22    23   ar
    20    23    24   ar
    21    24    25    1
    22    24    26   ar
    23     6     7   ar
    24    17    18   ar
    25    18    13   ar
    26     7     1   ar
    27    26    20   ar
    28     8    11    1
@<TRIPOS>MOLECULE
*****
 26 28 0 0 0
SMALL
GASTEIGER

@<TRIPOS>ATOM
      1 C          62.2170   87.4892   10.9494 C.ar    1  UNL1        0.0576
      2 C          61.3793   87.8648    9.7632 C.ar    1  UNL1        0.0161
      3 C          61.0577   89.3057    9.4983 C.ar    1  UNL1        0.0609
      4 CL         60.2199   89.6814    8.3120 Cl      1  UNL1       -0.0821
      5 C          61.5737   90.3710   10.4195 C.ar    1  UNL1        0.0489
      6 C          62.4114   89.9954   11.6057 C.ar    1  UNL1        0.1464
      7 C          62.7331   88.5545   11.8707 C.ar    1  UNL1        0.0421
      8 N          62.7601   85.5754   12.6205 N.am    1  UNL1       -0.2658
      9 C          62.5387   86.0482   11.2143 C.2     1  UNL1        0.2507
     10 O          62.6390   85.0800   10.0730 O.2     1  UNL1       -0.2698
     11 H          62.6943   86.2109   13.3696 H       1  UNL1        0.1566
     12 C          61.2600   80.8319   14.1204 C.3     1  UNL1        0.0521
     13 C          62.3317   81.7627   13.6354 C.ar    1  UNL1        0.0608
     14 C          63.7250   81.2526   13.4154 C.ar    1  UNL1        0.0148
     15 C          64.7967   82.1833   12.9305 C.ar    1  UNL1        0.0041
     16 C          64.4750   83.6243   12.6655 C.ar    1  UNL1        0.0345
     17 C          63.0818   84.1344   12.8855 C.ar    1  UNL1        0.1340
     18 N          62.0101   83.2036   13.3705 N.ar    1  UNL1       -0.2348
     19 O          62.9275   91.0607   12.5270 O.3     1  UNL1       -0.4518
     20 C          64.3379   91.5525   12.3895 C.ar    1  UNL1        0.1666
     21 C          65.2616   91.5215   13.5710 C.ar    1  UNL1        0.1364
     22 N          66.6719   92.0132   13.4335 N.ar    1  UNL1       -0.2368
     23 C          67.1587   92.5360   12.1145 C.ar    1  UNL1        0.1286
     24 C          66.2351   92.5670   10.9330 C.ar    1  UNL1        0.1623
     25 F          66.7219   93.0897    9.6140 F       1  UNL1       -0.2024
     26 C          64.8246   92.0752   11.0705 C.ar    1  UNL1        0.0703
@<TRIPOS>BOND
     1    12    13    1
     2    13    14   ar
     3    14    15   ar
     4    15    16   ar
     5    16    17   ar
     6    17     8    1
     7     8     9   am
     8     9    10    2
     9     9     1    1
    10     1     2   ar
    11     2     3   ar
    12     3     4    1
    13     3     5   ar
    14     5     6   ar
    15     6    19    1
    16    19    20    1
    17    20    21   ar
    18    21    22   ar
    19    22    23   ar
    20    23    24   ar
    21    24    25    1
    22    24    26   ar
    23     6     7   ar
    24    17    18   ar
    25    18    13   ar
    26     7     1   ar
    27    26    20   ar
    28     8    11    1
