@<TRIPOS>MOLECULE
*****
 29 31 0 0 0
SMALL
GASTEIGER

@<TRIPOS>ATOM
      1 C          63.3273   90.1674   11.9478 C.ar    0  UNK0        0.0762
      2 C          62.5001   90.8473   10.8974 C.ar    0  UNK0        0.1175
      3 N          61.5713   90.0429   10.0371 N.ar    0  UNK0       -0.2223
      4 C          61.4696   88.5585   10.2272 C.ar    0  UNK0        0.1784
      5 N          60.6481   87.5118    9.5346 N.ar    0  UNK0       -0.2236
      6 C          60.9676   86.1849   10.1570 C.ar    0  UNK0        0.1066
      7 C          61.9866   86.4116   11.2342 C.ar    0  UNK0        0.0910
      8 C          62.2968   87.8785   11.2776 C.ar    0  UNK0        0.0988
      9 N          63.2256   88.6829   12.1379 N.ar    0  UNK0       -0.3493
     10 H          63.7685   88.2367   12.8274 H       0  UNK0        0.1661
     11 C          66.1139   92.5807   14.5288 C.ar    0  UNK0        0.1724
     12 C          65.3319   91.4478   15.1247 C.ar    0  UNK0        0.0401
     13 C          64.4030   90.6434   14.2643 C.ar    0  UNK0        0.0048
     14 C          64.2561   90.9718   12.8082 C.ar    0  UNK0        0.0203
     15 C          65.0381   92.1047   12.2122 C.ar    0  UNK0        0.0415
     16 C          65.9669   92.9091   13.0725 C.ar    0  UNK0        0.1724
     17 C          68.3599   92.8075   15.8146 C.3     0  UNK0        0.2526
     18 O          67.0427   93.3851   15.3890 O.3     0  UNK0       -0.4684
     19 O          66.7489   94.0420   12.4766 O.3     0  UNK0       -0.4684
     20 C          66.1974   94.7997   11.3054 C.3     0  UNK0        0.2526
     21 C          62.5894   85.3565   12.1137 C.2     0  UNK0        0.2489
     22 O          63.3672   85.7517   13.3338 O.2     0  UNK0       -0.2700
     23 N          62.4144   83.9063   11.7730 N.am    1  ALA1       -0.2999
     24 H          61.9039   83.6468   10.9721 H       1  ALA1        0.1498
     25 CA         63.0173   82.8512   12.6524 C.3     1  ALA1        0.1011
     26 CB         62.2752   82.3710   13.8643 C.3     1  ALA1        0.0239
     27 C          64.3622   82.2763   12.3200 C.3     1  ALA1        0.1565
     28 O          65.1392   82.8111   11.1537 O.3     1  ALA1       -0.3802
     29 H          64.6678   82.6078   10.3307 H       1  ALA1        0.2105
@<TRIPOS>BOND
     1    17    18    1
     2    18    11    1
     3    11    12   ar
     4    12    13   ar
     5    13    14   ar
     6    14     1    1
     7     1     2   ar
     8     2     3   ar
     9     3     4   ar
    10     4     5   ar
    11     5     6   ar
    12     6     7   ar
    13     7    21    1
    14    21    22    2
    15    21    23   am
    16    23    25    1
    17    25    26    1
    18    25    27    1
    19    27    28    1
    20     7     8   ar
    21     8     9   ar
    22    14    15   ar
    23    15    16   ar
    24    16    19    1
    25    19    20    1
    26    16    11   ar
    27     9     1   ar
    28     8     4    1
    29    23    24    1
    30    28    29    1
    31     9    10    1
@<TRIPOS>MOLECULE
*****
 29 31 0 0 0
SMALL
GASTEIGER

@<TRIPOS>ATOM
      1 C          63.3089   90.2001   12.4876 C.ar    0  UNK0        0.0762
      2 C          63.0054   90.0143   13.9447 C.ar    0  UNK0        0.1175
      3 N          63.7277   90.8347   14.9718 N.ar    0  UNK0       -0.2223
      4 C          64.7536   91.8411   14.5418 C.ar    0  UNK0        0.1784
      5 N          65.6197   92.7867   15.3201 N.ar    0  UNK0       -0.2236
      6 C          66.4585   93.5570   14.3439 C.ar    0  UNK0        0.1066
      7 C          66.1108   93.0874   12.9623 C.ar    0  UNK0        0.0910
      8 C          65.0571   92.0269   13.0847 C.ar    0  UNK0        0.0988
      9 N          64.3348   91.2064   12.0576 N.ar    0  UNK0       -0.3493
     10 H          64.5340   91.3284   11.1012 H       0  UNK0        0.1661
     11 C          61.1420   87.7386    9.4060 C.ar    0  UNK0        0.1724
     12 C          61.0271   89.2341    9.3875 C.ar    0  UNK0        0.0401
     13 C          61.7494   90.0546   10.4147 C.ar    0  UNK0        0.0048
     14 C          62.5866   89.3796   11.4604 C.ar    0  UNK0        0.0203
     15 C          62.7015   87.8841   11.4789 C.ar    0  UNK0        0.0415
     16 C          61.9792   87.0636   10.4518 C.ar    0  UNK0        0.1724
     17 C          58.9691   87.1762    8.0976 C.3     0  UNK0        0.2526
     18 O          60.4197   86.9181    8.3789 O.3     0  UNK0       -0.4684
     19 O          62.0941   85.5682   10.4703 O.3     0  UNK0       -0.4684
     20 C          62.4373   84.8581   11.7462 C.3     0  UNK0        0.2526
     21 C          66.7114   93.5901   11.6830 C.2     0  UNK0        0.2489
     22 O          66.7876   95.0646   11.4187 O.2     0  UNK0       -0.2700
     23 N          67.2359   92.6182   10.6680 N.am    1  ALA1       -0.2999
     24 H          67.1859   91.6503   10.8414 H       1  ALA1        0.1498
     25 CA         67.8364   93.1208    9.3887 C.3     1  ALA1        0.1011
     26 CB         69.0151   92.4158    8.7856 C.3     1  ALA1        0.0239
     27 C          67.2584   94.3284    8.7123 C.3     1  ALA1        0.1565
     28 O          67.9850   95.6394    8.7687 O.3     1  ALA1       -0.3802
     29 H          68.0038   95.9596    9.6841 H       1  ALA1        0.2105
@<TRIPOS>BOND
     1    17    18    1
     2    18    11    1
     3    11    12   ar
     4    12    13   ar
     5    13    14   ar
     6    14     1    1
     7     1     2   ar
     8     2     3   ar
     9     3     4   ar
    10     4     5   ar
    11     5     6   ar
    12     6     7   ar
    13     7    21    1
    14    21    22    2
    15    21    23   am
    16    23    25    1
    17    25    26    1
    18    25    27    1
    19    27    28    1
    20     7     8   ar
    21     8     9   ar
    22    14    15   ar
    23    15    16   ar
    24    16    19    1
    25    19    20    1
    26    16    11   ar
    27     9     1   ar
    28     8     4    1
    29    23    24    1
    30    28    29    1
    31     9    10    1
@<TRIPOS>MOLECULE
*****
 29 31 0 0 0
SMALL
GASTEIGER

@<TRIPOS>ATOM
      1 C          63.3795   90.1667   12.2693 C.ar    0  UNK0        0.0762
      2 C          63.6179   89.6133   13.6430 C.ar    0  UNK0        0.1175
      3 N          64.6166   90.2666   14.5517 N.ar    0  UNK0       -0.2223
      4 C          65.3769   91.4731   14.0868 C.ar    0  UNK0        0.1784
      5 N          66.4165   92.3233   14.7550 N.ar    0  UNK0       -0.2236
      6 C          66.8206   93.4021   13.7944 C.ar    0  UNK0        0.1066
      7 C          66.0307   93.2186   12.5324 C.ar    0  UNK0        0.0910
      8 C          65.1385   92.0264   12.7131 C.ar    0  UNK0        0.0988
      9 N          64.1398   91.3732   11.8044 N.ar    0  UNK0       -0.3493
     10 H          63.9833   91.7364   10.9028 H       0  UNK0        0.1661
     11 C          60.3833   88.2070    9.5429 C.ar    0  UNK0        0.1724
     12 C          60.3124   89.6835    9.7974 C.ar    0  UNK0        0.0401
     13 C          61.3112   90.3368   10.7062 C.ar    0  UNK0        0.0048
     14 C          62.3807   89.5134   11.3605 C.ar    0  UNK0        0.0203
     15 C          62.4516   88.0369   11.1060 C.ar    0  UNK0        0.0415
     16 C          61.4530   87.3836   10.1973 C.ar    0  UNK0        0.1724
     17 C          59.0760   88.1620    7.2983 C.3     0  UNK0        0.2526
     18 O          59.3846   87.5537    8.6342 O.3     0  UNK0       -0.4684
     19 O          61.5238   85.9071    9.9428 O.3     0  UNK0       -0.4684
     20 C          62.7454   85.3135    9.3062 C.3     0  UNK0        0.2526
     21 C          66.1178   94.0766   11.3051 C.2     0  UNK0        0.2489
     22 O          66.4439   93.4573    9.9785 O.2     0  UNK0       -0.2700
     23 N          65.8788   95.5541   11.4045 N.am    1  ALA1       -0.2999
     24 H          65.6648   95.9607   12.2752 H       1  ALA1        0.1498
     25 CA         65.9659   96.4122   10.1772 C.3     1  ALA1        0.1011
     26 CB         64.7133   96.8481    9.4764 C.3     1  ALA1        0.0239
     27 C          67.3054   96.8343    9.6507 C.3     1  ALA1        0.1565
     28 O          67.6887   96.5181    8.2354 O.3     1  ALA1       -0.3802
     29 H          67.7679   95.5573    8.1288 H       1  ALA1        0.2105
@<TRIPOS>BOND
     1    17    18    1
     2    18    11    1
     3    11    12   ar
     4    12    13   ar
     5    13    14   ar
     6    14     1    1
     7     1     2   ar
     8     2     3   ar
     9     3     4   ar
    10     4     5   ar
    11     5     6   ar
    12     6     7   ar
    13     7    21    1
    14    21    22    2
    15    21    23   am
    16    23    25    1
    17    25    26    1
    18    25    27    1
    19    27    28    1
    20     7     8   ar
    21     8     9   ar
    22    14    15   ar
    23    15    16   ar
    24    16    19    1
    25    19    20    1
    26    16    11   ar
    27     9     1   ar
    28     8     4    1
    29    23    24    1
    30    28    29    1
    31     9    10    1
@<TRIPOS>MOLECULE
*****
 29 31 0 0 0
SMALL
GASTEIGER

@<TRIPOS>ATOM
      1 C          62.6647   89.6863   11.7134 C.ar    0  UNK0        0.0762
      2 C          61.8195   90.5025   10.7810 C.ar    0  UNK0        0.1175
      3 N          61.0547   89.8305    9.6795 N.ar    0  UNK0       -0.2223
      4 C          61.1351   88.3422    9.5104 C.ar    0  UNK0        0.1784
      5 N          60.4980   87.4082    8.5245 N.ar    0  UNK0       -0.2236
      6 C          60.9495   86.0148    8.8476 C.ar    0  UNK0        0.1066
      7 C          61.8656   86.0876   10.0332 C.ar    0  UNK0        0.0910
      8 C          61.9803   87.5260   10.4428 C.ar    0  UNK0        0.0988
      9 N          62.7451   88.1981   11.5443 N.ar    0  UNK0       -0.3493
     10 H          63.2998   87.6624   12.1563 H       0  UNK0        0.1661
     11 C          64.9592   91.7024   15.0181 C.ar    0  UNK0        0.1724
     12 C          65.2973   91.9917   13.5856 C.ar    0  UNK0        0.0401
     13 C          64.5324   91.3197   12.4841 C.ar    0  UNK0        0.0048
     14 C          63.4296   90.3584   12.8150 C.ar    0  UNK0        0.0203
     15 C          63.0915   90.0691   14.2475 C.ar    0  UNK0        0.0415
     16 C          63.8563   90.7410   15.3490 C.ar    0  UNK0        0.1724
     17 C          67.1346   92.8273   15.8852 C.3     0  UNK0        0.2526
     18 O          65.7240   92.3744   16.1197 O.3     0  UNK0       -0.4684
     19 O          63.5183   90.4517   16.7815 O.3     0  UNK0       -0.4684
     20 C          63.1096   89.0678   17.1909 C.3     0  UNK0        0.2526
     21 C          62.5474   84.9259   10.6933 C.2     0  UNK0        0.2489
     22 O          63.4228   84.0130    9.8869 O.2     0  UNK0       -0.2700
     23 N          62.3537   84.6771   12.1598 N.am    1  ALA1       -0.2999
     24 H          61.7792   85.2763   12.6890 H       1  ALA1        0.1498
     25 CA         63.0355   83.5155   12.8198 C.3     1  ALA1        0.1011
     26 CB         62.2228   82.4725   13.5282 C.3     1  ALA1        0.0239
     27 C          64.5300   83.3966   12.7716 C.3     1  ALA1        0.1565
     28 O          65.1847   82.6080   11.6764 O.3     1  ALA1       -0.3802
     29 H          64.9503   81.6712   11.7680 H       1  ALA1        0.2105
@<TRIPOS>BOND
     1    17    18    1
     2    18    11    1
     3    11    12   ar
     4    12    13   ar
     5    13    14   ar
     6    14     1    1
     7     1     2   ar
     8     2     3   ar
     9     3     4   ar
    10     4     5   ar
    11     5     6   ar
    12     6     7   ar
    13     7    21    1
    14    21    22    2
    15    21    23   am
    16    23    25    1
    17    25    26    1
    18    25    27    1
    19    27    28    1
    20     7     8   ar
    21     8     9   ar
    22    14    15   ar
    23    15    16   ar
    24    16    19    1
    25    19    20    1
    26    16    11   ar
    27     9     1   ar
    28     8     4    1
    29    23    24    1
    30    28    29    1
    31     9    10    1
@<TRIPOS>MOLECULE
*****
 29 31 0 0 0
SMALL
GASTEIGER

@<TRIPOS>ATOM
      1 C          63.3690   86.5564   13.1360 C.ar    0  UNK0        0.0762
      2 C          64.0535   87.5067   14.0732 C.ar    0  UNK0        0.1175
      3 N          64.0277   88.9809   13.7975 N.ar    0  UNK0       -0.2223
      4 C          63.3174   89.5048   12.5847 C.ar    0  UNK0        0.1784
      5 N          63.1247   90.8957   12.0570 N.ar    0  UNK0       -0.2236
      6 C          62.3211   90.8049   10.7937 C.ar    0  UNK0        0.1066
      7 C          62.0171   89.3580   10.5406 C.ar    0  UNK0        0.0910
      8 C          62.6329   88.5545   11.6475 C.ar    0  UNK0        0.0988
      9 N          62.6587   87.0803   11.9231 N.ar    0  UNK0       -0.3493
     10 H          62.2094   86.4566   11.3080 H       0  UNK0        0.1661
     11 C          63.4464   82.1336   13.9628 C.ar    0  UNK0        0.1724
     12 C          63.0118   83.0893   15.0341 C.ar    0  UNK0        0.0401
     13 C          62.9860   84.5636   14.7584 C.ar    0  UNK0        0.0048
     14 C          63.3948   85.0821   13.4116 C.ar    0  UNK0        0.0203
     15 C          63.8294   84.1263   12.3403 C.ar    0  UNK0        0.0415
     16 C          63.8552   82.6521   12.6159 C.ar    0  UNK0        0.1724
     17 C          62.3222   79.7963   13.8111 C.3     0  UNK0        0.2526
     18 O          63.4722   80.6594   14.2383 O.3     0  UNK0       -0.4684
     19 O          64.2898   81.6964   11.5446 O.3     0  UNK0       -0.4684
     20 C          63.3113   81.2428   10.5021 C.3     0  UNK0        0.2526
     21 C          61.2348   88.8107    9.3837 C.2     0  UNK0        0.2489
     22 O          61.4023   87.3768    8.9764 O.2     0  UNK0       -0.2700
     23 N          60.2850   89.6972    8.6342 N.am    1  ALA1       -0.2999
     24 H          60.1750   90.6383    8.9015 H       1  ALA1        0.1498
     25 CA         59.5026   89.1499    7.4773 C.3     1  ALA1        0.1011
     26 CB         59.5663   89.8282    6.1409 C.3     1  ALA1        0.0239
     27 C          58.6567   87.9243    7.6567 C.3     1  ALA1        0.1565
     28 O          59.1247   86.6046    7.1190 O.3     1  ALA1       -0.3802
     29 H          59.1529   86.6418    6.1501 H       1  ALA1        0.2105
@<TRIPOS>BOND
     1    17    18    1
     2    18    11    1
     3    11    12   ar
     4    12    13   ar
     5    13    14   ar
     6    14     1    1
     7     1     2   ar
     8     2     3   ar
     9     3     4   ar
    10     4     5   ar
    11     5     6   ar
    12     6     7   ar
    13     7    21    1
    14    21    22    2
    15    21    23   am
    16    23    25    1
    17    25    26    1
    18    25    27    1
    19    27    28    1
    20     7     8   ar
    21     8     9   ar
    22    14    15   ar
    23    15    16   ar
    24    16    19    1
    25    19    20    1
    26    16    11   ar
    27     9     1   ar
    28     8     4    1
    29    23    24    1
    30    28    29    1
    31     9    10    1
@<TRIPOS>MOLECULE
*****
 29 31 0 0 0
SMALL
GASTEIGER

@<TRIPOS>ATOM
      1 C          62.3563   88.4776   10.8883 C.ar    0  UNK0        0.0762
      2 C          62.4361   87.0082   11.1791 C.ar    0  UNK0        0.1175
      3 N          61.6294   86.0383   10.3677 N.ar    0  UNK0       -0.2223
      4 C          60.7429   86.5377    9.2655 C.ar    0  UNK0        0.1784
      5 N          59.8379   85.8252    8.3046 N.ar    0  UNK0       -0.2236
      6 C          59.1988   86.8542    7.4199 C.ar    0  UNK0        0.1066
      7 C          59.7089   88.2027    7.8341 C.ar    0  UNK0        0.0910
      8 C          60.6632   88.0070    8.9747 C.ar    0  UNK0        0.0988
      9 N          61.4699   88.9770    9.7861 N.ar    0  UNK0       -0.3493
     10 H          61.4176   89.9414    9.5952 H       0  UNK0        0.1661
     11 C          64.7764   91.3877   13.3225 C.ar    0  UNK0        0.1724
     12 C          64.3050   90.1041   13.9391 C.ar    0  UNK0        0.0401
     13 C          63.4983   89.1341   13.1277 C.ar    0  UNK0        0.0048
     14 C          63.1630   89.4476   11.6997 C.ar    0  UNK0        0.0203
     15 C          63.6345   90.7311   11.0830 C.ar    0  UNK0        0.0415
     16 C          64.4412   91.7012   11.8944 C.ar    0  UNK0        0.1724
     17 C          67.0816   92.3076   14.0903 C.3     0  UNK0        0.2526
     18 O          65.5831   92.3577   14.1338 O.3     0  UNK0       -0.4684
     19 O          64.9126   92.9847   11.2777 O.3     0  UNK0       -0.4684
     20 C          66.1986   93.0182   10.5064 C.3     0  UNK0        0.2526
     21 C          59.3310   89.5162    7.2161 C.2     0  UNK0        0.2489
     22 O          59.6301   90.7976    7.9362 O.2     0  UNK0       -0.2700
     23 N          58.6539   89.5484    5.8780 N.am    1  ALA1       -0.2999
     24 H          58.4575   88.7074    5.4054 H       1  ALA1        0.1498
     25 CA         58.2760   90.8619    5.2601 C.3     1  ALA1        0.1011
     26 CB         59.3437   91.8300    4.8444 C.3     1  ALA1        0.0239
     27 C          56.8305   91.2074    5.0578 C.3     1  ALA1        0.1565
     28 O          55.7609   90.2982    5.5863 O.3     1  ALA1       -0.3802
     29 H          55.7932   89.4518    5.1135 H       1  ALA1        0.2105
@<TRIPOS>BOND
     1    17    18    1
     2    18    11    1
     3    11    12   ar
     4    12    13   ar
     5    13    14   ar
     6    14     1    1
     7     1     2   ar
     8     2     3   ar
     9     3     4   ar
    10     4     5   ar
    11     5     6   ar
    12     6     7   ar
    13     7    21    1
    14    21    22    2
    15    21    23   am
    16    23    25    1
    17    25    26    1
    18    25    27    1
    19    27    28    1
    20     7     8   ar
    21     8     9   ar
    22    14    15   ar
    23    15    16   ar
    24    16    19    1
    25    19    20    1
    26    16    11   ar
    27     9     1   ar
    28     8     4    1
    29    23    24    1
    30    28    29    1
    31     9    10    1
@<TRIPOS>MOLECULE
*****
 29 31 0 0 0
SMALL
GASTEIGER

@<TRIPOS>ATOM
      1 C          63.4162   89.8383   12.8193 C.ar    0  UNK0        0.0762
      2 C          63.2023   89.5327   14.2721 C.ar    0  UNK0        0.1175
      3 N          63.9055   90.3430   15.3204 N.ar    0  UNK0       -0.2223
      4 C          64.8226   91.4589   14.9158 C.ar    0  UNK0        0.1784
      5 N          65.6463   92.4221   15.7183 N.ar    0  UNK0       -0.2236
      6 C          66.3692   93.3230   14.7613 C.ar    0  UNK0        0.1066
      7 C          65.9924   92.9165   13.3674 C.ar    0  UNK0        0.0910
      8 C          65.0365   91.7645   13.4629 C.ar    0  UNK0        0.0988
      9 N          64.3333   90.9542   12.4147 N.ar    0  UNK0       -0.3493
     10 H          64.4737   91.1547   11.4611 H       0  UNK0        0.1661
     11 C          61.3065   87.4075    9.6743 C.ar    0  UNK0        0.1724
     12 C          62.0884   86.7201   10.7542 C.ar    0  UNK0        0.0401
     13 C          62.7916   87.5304   11.8025 C.ar    0  UNK0        0.0048
     14 C          62.7130   89.0280   11.7709 C.ar    0  UNK0        0.0203
     15 C          61.9311   89.7153   10.6910 C.ar    0  UNK0        0.0415
     16 C          61.2279   88.9051    9.6427 C.ar    0  UNK0        0.1724
     17 C          61.3820   85.6482    7.7640 C.3     0  UNK0        0.2526
     18 O          60.6033   86.5972    8.6259 O.3     0  UNK0       -0.4684
     19 O          60.4461   89.5925    8.5627 O.3     0  UNK0       -0.4684
     20 C          59.4893   88.8082    7.7146 C.3     0  UNK0        0.2526
     21 C          66.4849   93.5508   12.1005 C.2     0  UNK0        0.2489
     22 O          66.3221   95.0267   11.8881 O.2     0  UNK0       -0.2700
     23 N          67.1402   92.7091   11.0459 N.am    1  ALA1       -0.2999
     24 H          67.2471   91.7404   11.1853 H       1  ALA1        0.1498
     25 CA         67.6328   93.3434    9.7790 C.3     1  ALA1        0.1011
     26 CB         66.8348   94.4330    9.1263 C.3     1  ALA1        0.0239
     27 C          68.9232   92.8881    9.1647 C.3     1  ALA1        0.1565
     28 O          68.9085   91.9113    8.0264 O.3     1  ALA1       -0.3802
     29 H          68.5666   91.0582    8.3368 H       1  ALA1        0.2105
@<TRIPOS>BOND
     1    17    18    1
     2    18    11    1
     3    11    12   ar
     4    12    13   ar
     5    13    14   ar
     6    14     1    1
     7     1     2   ar
     8     2     3   ar
     9     3     4   ar
    10     4     5   ar
    11     5     6   ar
    12     6     7   ar
    13     7    21    1
    14    21    22    2
    15    21    23   am
    16    23    25    1
    17    25    26    1
    18    25    27    1
    19    27    28    1
    20     7     8   ar
    21     8     9   ar
    22    14    15   ar
    23    15    16   ar
    24    16    19    1
    25    19    20    1
    26    16    11   ar
    27     9     1   ar
    28     8     4    1
    29    23    24    1
    30    28    29    1
    31     9    10    1
@<TRIPOS>MOLECULE
*****
 29 31 0 0 0
SMALL
GASTEIGER

@<TRIPOS>ATOM
      1 C          63.7003   86.9219   14.7900 C.ar    0  UNK0        0.0762
      2 C          63.2012   86.8587   16.2031 C.ar    0  UNK0        0.1175
      3 N          63.0995   88.1130   17.0194 N.ar    0  UNK0       -0.2223
      4 C          63.4969   89.4305   16.4226 C.ar    0  UNK0        0.1784
      5 N          63.5051   90.8232   16.9799 N.ar    0  UNK0       -0.2236
      6 C          64.0092   91.7471   15.9112 C.ar    0  UNK0        0.1066
      7 C          64.3127   90.9255   14.6935 C.ar    0  UNK0        0.0910
      8 C          63.9961   89.4938   15.0096 C.ar    0  UNK0        0.0988
      9 N          64.0978   88.2395   14.1933 N.ar    0  UNK0       -0.3493
     10 H          64.4254   88.2810   13.2658 H       0  UNK0        0.1661
     11 C          64.0054   83.1591   12.3409 C.ar    0  UNK0        0.1724
     12 C          64.5946   83.2064   13.7195 C.ar    0  UNK0        0.0401
     13 C          64.4929   84.4608   14.5359 C.ar    0  UNK0        0.0048
     14 C          63.8020   85.6676   13.9736 C.ar    0  UNK0        0.0203
     15 C          63.2129   85.6202   12.5950 C.ar    0  UNK0        0.0415
     16 C          63.3146   84.3660   11.7786 C.ar    0  UNK0        0.1724
     17 C          62.9607   80.9382   11.4889 C.3     0  UNK0        0.2526
     18 O          64.1071   81.9048   11.5245 O.3     0  UNK0       -0.4684
     19 O          62.7254   84.3186   10.4000 O.3     0  UNK0       -0.4684
     20 C          62.4431   85.5929    9.6608 C.3     0  UNK0        0.2526
     21 C          64.8402   91.4445   13.3887 C.2     0  UNK0        0.2489
     22 O          64.1394   91.1029   12.1073 O.2     0  UNK0       -0.2700
     23 N          66.0685   92.3050   13.3654 N.am    1  ALA1       -0.2999
     24 H          66.5285   92.5292   14.2064 H       1  ALA1        0.1498
     25 CA         66.5960   92.8240   12.0606 C.3     1  ALA1        0.1011
     26 CB         67.6028   92.0248   11.2875 C.3     1  ALA1        0.0239
     27 C          66.1168   94.1421   11.5289 C.3     1  ALA1        0.1565
     28 O          67.0653   95.0459   10.7985 O.3     1  ALA1       -0.3802
     29 H          67.7509   95.3572   11.4100 H       1  ALA1        0.2105
@<TRIPOS>BOND
     1    17    18    1
     2    18    11    1
     3    11    12   ar
     4    12    13   ar
     5    13    14   ar
     6    14     1    1
     7     1     2   ar
     8     2     3   ar
     9     3     4   ar
    10     4     5   ar
    11     5     6   ar
    12     6     7   ar
    13     7    21    1
    14    21    22    2
    15    21    23   am
    16    23    25    1
    17    25    26    1
    18    25    27    1
    19    27    28    1
    20     7     8   ar
    21     8     9   ar
    22    14    15   ar
    23    15    16   ar
    24    16    19    1
    25    19    20    1
    26    16    11   ar
    27     9     1   ar
    28     8     4    1
    29    23    24    1
    30    28    29    1
    31     9    10    1
@<TRIPOS>MOLECULE
*****
 29 31 0 0 0
SMALL
GASTEIGER

@<TRIPOS>ATOM
      1 C          62.3471   88.5328   11.0176 C.ar    0  UNK0        0.0762
      2 C          62.4979   87.0679   11.3028 C.ar    0  UNK0        0.1175
      3 N          61.7557   86.0621   10.4737 N.ar    0  UNK0       -0.2223
      4 C          60.8626   86.5212    9.3594 C.ar    0  UNK0        0.1784
      5 N          60.0113   85.7682    8.3804 N.ar    0  UNK0       -0.2236
      6 C          59.3343   86.7678    7.4901 C.ar    0  UNK0        0.1066
      7 C          59.7672   88.1384    7.9189 C.ar    0  UNK0        0.0910
      8 C          60.7118   87.9860    9.0742 C.ar    0  UNK0        0.0988
      9 N          61.4540   88.9918    9.9032 N.ar    0  UNK0       -0.3493
     10 H          61.3550   89.9533    9.7161 H       0  UNK0        0.1661
     11 C          64.5737   91.5504   13.5049 C.ar    0  UNK0        0.1724
     12 C          64.3890   91.7805   12.0342 C.ar    0  UNK0        0.0401
     13 C          63.6468   90.7746   11.2051 C.ar    0  UNK0        0.0048
     14 C          63.0893   89.5387   11.8467 C.ar    0  UNK0        0.0203
     15 C          63.2739   89.3086   13.3174 C.ar    0  UNK0        0.0415
     16 C          64.0161   90.3144   14.1465 C.ar    0  UNK0        0.1724
     17 C          66.7312   92.9141   13.9896 C.3     0  UNK0        0.2526
     18 O          65.3159   92.5562   14.3340 O.3     0  UNK0       -0.4684
     19 O          64.2008   90.0843   15.6172 O.3     0  UNK0       -0.4684
     20 C          63.1486   89.3567   16.4004 C.3     0  UNK0        0.2526
     21 C          59.3320   89.4341    7.3009 C.2     0  UNK0        0.2489
     22 O          59.4546   90.7129    8.0752 O.2     0  UNK0       -0.2700
     23 N          58.7742   89.4509    5.9086 N.am    1  ALA1       -0.2999
     24 H          58.6937   88.6116    5.4004 H       1  ALA1        0.1498
     25 CA         58.3390   90.7466    5.2907 C.3     1  ALA1        0.1011
     26 CB         56.8783   91.0624    5.1611 C.3     1  ALA1        0.0239
     27 C          59.3643   91.7264    4.8022 C.3     1  ALA1        0.1565
     28 O          59.0674   93.1965    4.8246 O.3     1  ALA1       -0.3802
     29 H          58.3484   93.3906    4.2030 H       1  ALA1        0.2105
@<TRIPOS>BOND
     1    17    18    1
     2    18    11    1
     3    11    12   ar
     4    12    13   ar
     5    13    14   ar
     6    14     1    1
     7     1     2   ar
     8     2     3   ar
     9     3     4   ar
    10     4     5   ar
    11     5     6   ar
    12     6     7   ar
    13     7    21    1
    14    21    22    2
    15    21    23   am
    16    23    25    1
    17    25    26    1
    18    25    27    1
    19    27    28    1
    20     7     8   ar
    21     8     9   ar
    22    14    15   ar
    23    15    16   ar
    24    16    19    1
    25    19    20    1
    26    16    11   ar
    27     9     1   ar
    28     8     4    1
    29    23    24    1
    30    28    29    1
    31     9    10    1
