@<TRIPOS>MOLECULE
*****
 29 33 0 0 0
SMALL
GASTEIGER

@<TRIPOS>ATOM
      1 O          63.1591   89.5117   14.7388 O.3     1  UNL1       -0.4630
      2 C          66.6889   93.0683   13.3636 C.3     1  UNL1        0.0308
      3 C          65.5234   92.1915   13.0130 C.ar    1  UNL1       -0.0231
      4 C          64.9240   91.2899   14.0513 C.ar    1  UNL1        0.0324
      5 C          63.7585   90.4132   13.7006 C.ar    1  UNL1        0.1402
      6 C          63.1924   90.4380   12.3118 C.ar    1  UNL1        0.0479
      7 C          63.7918   91.3396   11.2735 C.ar    1  UNL1       -0.0171
      8 C          64.9573   92.2163   11.6241 C.ar    1  UNL1       -0.0292
      9 C          65.5567   93.1178   10.5859 C.3     1  UNL1        0.0304
     10 C          63.0262   91.1503    9.9976 C.3     1  UNL1        0.0606
     11 C          61.9537   90.1318   10.2472 C.ar    1  UNL1        0.0308
     12 S          60.8176   89.3854    9.6129 S.2     1  UNL1       -0.0685
     13 C          60.2183   88.4839   10.6511 C.ar    1  UNL1        0.1342
     14 N          60.9838   88.6731   11.9271 N.ar    1  UNL1       -0.2365
     15 C          62.0564   89.6916   11.6775 C.ar    1  UNL1        0.0868
     16 C          63.9755   88.3999   15.3283 C.3     1  UNL1        0.3201
     17 P          63.6724   86.9753   14.9697 P.3     1  UNL1        0.3873
     18 O          64.2157   87.4638   13.6596 O.2     1  UNL1       -0.2539
     19 O          63.2344   86.9815   16.4043 O.3     1  UNL1       -0.2916
     20 C          62.6820   85.7328   17.0252 C.3     1  UNL1        0.1544
     21 C          62.5676   84.4778   16.2116 C.3     1  UNL1        0.0688
     22 C          63.0056   84.4716   14.7769 C.3     1  UNL1        0.1661
     23 O          63.5581   85.7204   14.1560 O.3     1  UNL1       -0.2880
     24 C          62.8913   83.2167   13.9633 C.ar    1  UNL1        0.0866
     25 C          63.0783   83.2677   12.4758 C.ar    1  UNL1        0.0172
     26 C          62.9639   82.0128   11.6621 C.ar    1  UNL1        0.0029
     27 C          62.6626   80.7069   12.3357 C.ar    1  UNL1        0.0207
     28 C          62.4756   80.6559   13.8231 C.ar    1  UNL1        0.0985
     29 N          62.5900   81.9108   14.6368 N.ar    1  UNL1       -0.2457
@<TRIPOS>BOND
     1     2     3    1
     2     3     4   ar
     3     4     5   ar
     4     5     1    1
     5     1    16    1
     6    17    16    1
     7    17    18    2
     8    17    19    1
     9    19    20    1
    10    20    21    1
    11    21    22    1
    12    22    24    1
    13    24    25   ar
    14    25    26   ar
    15    26    27   ar
    16    27    28   ar
    17    28    29   ar
    18    22    23    1
    19     5     6   ar
    20     6     7   ar
    21     7     8   ar
    22     8     9    1
    23     7    10    1
    24    10    11    1
    25    11    12   ar
    26    12    13   ar
    27    13    14   ar
    28    14    15   ar
    29     8     3   ar
    30    15    11   ar
    31    23    17    1
    32    15     6    1
    33    29    24   ar
@<TRIPOS>MOLECULE
*****
 29 33 0 0 0
SMALL
GASTEIGER

@<TRIPOS>ATOM
      1 O          61.4669   88.8002   12.1501 O.3     1  UNL1       -0.4630
      2 C          59.4215   88.1355    7.4199 C.3     1  UNL1        0.0308
      3 C          60.2297   87.6137    8.5708 C.ar    1  UNL1       -0.0231
      4 C          60.4442   88.4679    9.7851 C.ar    1  UNL1        0.0324
      5 C          61.2524   87.9460   10.9359 C.ar    1  UNL1        0.1402
      6 C          61.8461   86.5700   10.8726 C.ar    1  UNL1        0.0479
      7 C          61.6315   85.7157    9.6583 C.ar    1  UNL1       -0.0171
      8 C          60.8234   86.2376    8.5075 C.ar    1  UNL1       -0.0292
      9 C          60.6089   85.3834    7.2933 C.3     1  UNL1        0.0304
     10 C          62.3350   84.4096    9.8804 C.3     1  UNL1        0.0606
     11 C          62.9843   84.4566   11.2317 C.ar    1  UNL1        0.0308
     12 S          63.8203   83.6784   12.2041 S.2     1  UNL1       -0.0685
     13 C          64.0348   84.5327   13.4183 C.ar    1  UNL1        0.1342
     14 N          63.3314   85.8388   13.1964 N.ar    1  UNL1       -0.2365
     15 C          62.6821   85.7918   11.8450 C.ar    1  UNL1        0.0868
     16 C          61.8093   90.2523   11.9946 C.3     1  UNL1        0.3201
     17 P          63.1108   90.7770   12.5247 P.3     1  UNL1        0.3873
     18 O          62.5940   90.0785   13.7475 O.2     1  UNL1       -0.2539
     19 O          63.1755   91.2932   11.1178 O.3     1  UNL1       -0.2916
     20 C          64.3622   92.0916   10.6658 C.3     1  UNL1        0.1544
     21 C          65.4842   92.3737   11.6206 C.3     1  UNL1        0.0688
     22 C          65.4194   91.8574   13.0275 C.3     1  UNL1        0.1661
     23 O          64.2327   91.0590   13.4796 O.3     1  UNL1       -0.2880
     24 C          66.5413   92.1394   13.9824 C.ar    1  UNL1        0.0866
     25 C          66.2430   92.4512   15.4190 C.ar    1  UNL1        0.0172
     26 C          67.3649   92.7332   16.3739 C.ar    1  UNL1        0.0029
     27 C          68.7851   92.7036   15.8922 C.ar    1  UNL1        0.0207
     28 C          69.0834   92.3919   14.4556 C.ar    1  UNL1        0.0985
     29 N          67.9615   92.1098   13.5007 N.ar    1  UNL1       -0.2457
@<TRIPOS>BOND
     1     2     3    1
     2     3     4   ar
     3     4     5   ar
     4     5     1    1
     5     1    16    1
     6    17    16    1
     7    17    18    2
     8    17    19    1
     9    19    20    1
    10    20    21    1
    11    21    22    1
    12    22    24    1
    13    24    25   ar
    14    25    26   ar
    15    26    27   ar
    16    27    28   ar
    17    28    29   ar
    18    22    23    1
    19     5     6   ar
    20     6     7   ar
    21     7     8   ar
    22     8     9    1
    23     7    10    1
    24    10    11    1
    25    11    12   ar
    26    12    13   ar
    27    13    14   ar
    28    14    15   ar
    29     8     3   ar
    30    15    11   ar
    31    23    17    1
    32    15     6    1
    33    29    24   ar
@<TRIPOS>MOLECULE
*****
 29 33 0 0 0
SMALL
GASTEIGER

@<TRIPOS>ATOM
      1 O          62.9992   89.4289   13.1386 O.3     1  UNL1       -0.4630
      2 C          64.7241   84.7360   14.5534 C.3     1  UNL1        0.0308
      3 C          63.9475   85.6039   13.6081 C.ar    1  UNL1       -0.0231
      4 C          63.8617   87.0825   13.8460 C.ar    1  UNL1        0.0324
      5 C          63.0850   87.9504   12.9006 C.ar    1  UNL1        0.1402
      6 C          62.3943   87.3398   11.7175 C.ar    1  UNL1        0.0479
      7 C          62.4801   85.8612   11.4796 C.ar    1  UNL1       -0.0171
      8 C          63.2567   84.9933   12.4248 C.ar    1  UNL1       -0.0292
      9 C          63.3426   83.5148   12.1869 C.3     1  UNL1        0.0304
     10 C          61.7009   85.5457   10.2373 C.3     1  UNL1        0.0606
     11 C          61.1335   86.8292    9.7074 C.ar    1  UNL1        0.0308
     12 S          60.3012   87.4274    8.6122 S.2     1  UNL1       -0.0685
     13 C          60.2154   88.9059    8.8501 C.ar    1  UNL1        0.1342
     14 N          60.9946   89.2215   10.0924 N.ar    1  UNL1       -0.2365
     15 C          61.5620   87.9380   10.6223 C.ar    1  UNL1        0.0868
     16 C          64.1177   90.1420   13.8390 C.3     1  UNL1        0.3201
     17 P          64.7798   91.3203   13.1883 P.3     1  UNL1        0.3873
     18 O          64.0014   90.7831   12.0240 O.2     1  UNL1       -0.2539
     19 O          65.3283   91.4483   14.5786 O.3     1  UNL1       -0.2916
     20 C          66.2684   92.5679   14.9137 C.3     1  UNL1        0.1544
     21 C          66.6602   93.5596   13.8587 C.3     1  UNL1        0.0688
     22 C          66.1117   93.4317   12.4685 C.3     1  UNL1        0.1661
     23 O          65.1714   92.3119   12.1333 O.3     1  UNL1       -0.2880
     24 C          66.5034   94.4233   11.4134 C.ar    1  UNL1        0.0866
     25 C          66.1069   95.8633   11.5534 C.ar    1  UNL1        0.0172
     26 C          66.4986   96.8549   10.4983 C.ar    1  UNL1        0.0029
     27 C          67.2867   96.4068    9.3034 C.ar    1  UNL1        0.0207
     28 C          67.6831   94.9669    9.1634 C.ar    1  UNL1        0.0985
     29 N          67.2914   93.9752   10.2184 N.ar    1  UNL1       -0.2457
@<TRIPOS>BOND
     1     2     3    1
     2     3     4   ar
     3     4     5   ar
     4     5     1    1
     5     1    16    1
     6    17    16    1
     7    17    18    2
     8    17    19    1
     9    19    20    1
    10    20    21    1
    11    21    22    1
    12    22    24    1
    13    24    25   ar
    14    25    26   ar
    15    26    27   ar
    16    27    28   ar
    17    28    29   ar
    18    22    23    1
    19     5     6   ar
    20     6     7   ar
    21     7     8   ar
    22     8     9    1
    23     7    10    1
    24    10    11    1
    25    11    12   ar
    26    12    13   ar
    27    13    14   ar
    28    14    15   ar
    29     8     3   ar
    30    15    11   ar
    31    23    17    1
    32    15     6    1
    33    29    24   ar
@<TRIPOS>MOLECULE
*****
 29 33 0 0 0
SMALL
GASTEIGER

@<TRIPOS>ATOM
      1 O          62.1609   88.3354   12.2057 O.3     1  UNL1       -0.4630
      2 C          62.3016   85.4615    7.8789 C.3     1  UNL1        0.0308
      3 C          62.5695   85.6131    9.3469 C.ar    1  UNL1       -0.0231
      4 C          62.2313   86.8985   10.0423 C.ar    1  UNL1        0.0324
      5 C          62.4992   87.0500   11.5104 C.ar    1  UNL1        0.1402
      6 C          63.1054   85.9164   12.2831 C.ar    1  UNL1        0.0479
      7 C          63.4437   84.6310   11.5878 C.ar    1  UNL1       -0.0171
      8 C          63.1758   84.4794   10.1197 C.ar    1  UNL1       -0.0292
      9 C          63.5140   83.1940    9.4244 C.3     1  UNL1        0.0304
     10 C          64.0282   83.6945   12.6034 C.3     1  UNL1        0.0606
     11 C          64.0512   84.4011   13.9264 C.ar    1  UNL1        0.0308
     12 S          64.4266   84.2590   15.3716 S.2     1  UNL1       -0.0685
     13 C          64.0884   85.5443   16.0669 C.ar    1  UNL1        0.1342
     14 N          63.5038   86.4808   15.0514 N.ar    1  UNL1       -0.2365
     15 C          63.4809   85.7743   13.7284 C.ar    1  UNL1        0.0868
     16 C          61.9138   89.5791   11.4043 C.3     1  UNL1        0.3201
     17 P          63.0181   90.5744   11.2044 P.3     1  UNL1        0.3873
     18 O          62.4895   90.4869    9.8033 O.2     1  UNL1       -0.2539
     19 O          63.1631   90.3162   12.6749 O.3     1  UNL1       -0.2916
     20 C          64.2289   91.0230   13.4589 C.3     1  UNL1        0.1544
     21 C          65.1496   91.9879   12.7724 C.3     1  UNL1        0.0688
     22 C          65.0046   92.2460   11.3019 C.3     1  UNL1        0.1661
     23 O          63.9388   91.5392   10.5179 O.3     1  UNL1       -0.2880
     24 C          65.9253   93.2109   10.6154 C.ar    1  UNL1        0.0866
     25 C          67.1718   92.7116    9.9468 C.ar    1  UNL1        0.0172
     26 C          68.0925   93.6765    9.2603 C.ar    1  UNL1        0.0029
     27 C          67.7668   95.1405    9.2422 C.ar    1  UNL1        0.0207
     28 C          66.5202   95.6398    9.9108 C.ar    1  UNL1        0.0985
     29 N          65.5995   94.6749   10.5974 N.ar    1  UNL1       -0.2457
@<TRIPOS>BOND
     1     2     3    1
     2     3     4   ar
     3     4     5   ar
     4     5     1    1
     5     1    16    1
     6    17    16    1
     7    17    18    2
     8    17    19    1
     9    19    20    1
    10    20    21    1
    11    21    22    1
    12    22    24    1
    13    24    25   ar
    14    25    26   ar
    15    26    27   ar
    16    27    28   ar
    17    28    29   ar
    18    22    23    1
    19     5     6   ar
    20     6     7   ar
    21     7     8   ar
    22     8     9    1
    23     7    10    1
    24    10    11    1
    25    11    12   ar
    26    12    13   ar
    27    13    14   ar
    28    14    15   ar
    29     8     3   ar
    30    15    11   ar
    31    23    17    1
    32    15     6    1
    33    29    24   ar
@<TRIPOS>MOLECULE
*****
 29 33 0 0 0
SMALL
GASTEIGER

@<TRIPOS>ATOM
      1 O          61.9817   89.6740   12.2061 O.3     1  UNL1       -0.4630
      2 C          59.5379   88.9113    7.6844 C.3     1  UNL1        0.0308
      3 C          60.3361   88.3761    8.8360 C.ar    1  UNL1       -0.0231
      4 C          60.7598   89.2927    9.9453 C.ar    1  UNL1        0.0324
      5 C          61.5581   88.7573   11.0969 C.ar    1  UNL1        0.1402
      6 C          61.9326   87.3056   11.1394 C.ar    1  UNL1        0.0479
      7 C          61.5088   86.3889   10.0301 C.ar    1  UNL1       -0.0171
      8 C          60.7106   86.9242    8.8785 C.ar    1  UNL1       -0.0292
      9 C          60.2870   86.0076    7.7693 C.3     1  UNL1        0.0304
     10 C          62.0219   85.0145   10.3431 C.3     1  UNL1        0.0606
     11 C          62.7626   85.0817   11.6457 C.ar    1  UNL1        0.0308
     12 S          63.5375   84.2738   12.6442 S.2     1  UNL1       -0.0685
     13 C          63.9612   85.1905   13.7533 C.ar    1  UNL1        0.1342
     14 N          63.4482   86.5649   13.4404 N.ar    1  UNL1       -0.2365
     15 C          62.7074   86.4977   12.1378 C.ar    1  UNL1        0.0868
     16 C          63.4323   89.7906   12.5700 C.3     1  UNL1        0.3201
     17 P          64.2053   91.0177   12.1872 P.3     1  UNL1        0.3873
     18 O          63.4771   90.7572   10.9020 O.2     1  UNL1       -0.2539
     19 O          64.6650   90.8521   13.6054 O.3     1  UNL1       -0.2916
     20 C          65.6448   91.8232   14.1944 C.3     1  UNL1        0.1544
     21 C          66.1649   92.9599   13.3653 C.3     1  UNL1        0.0688
     22 C          65.7052   93.1255   11.9471 C.3     1  UNL1        0.1661
     23 O          64.7253   92.1544   11.3581 O.3     1  UNL1       -0.2880
     24 C          66.2252   94.2621   11.1179 C.ar    1  UNL1        0.0866
     25 C          66.9528   93.9838    9.8360 C.ar    1  UNL1        0.0172
     26 C          67.4728   95.1205    9.0068 C.ar    1  UNL1        0.0029
     27 C          67.2654   96.5353    9.4594 C.ar    1  UNL1        0.0207
     28 C          66.5379   96.8137   10.7414 C.ar    1  UNL1        0.0985
     29 N          66.0179   95.6770   11.5706 N.ar    1  UNL1       -0.2457
@<TRIPOS>BOND
     1     2     3    1
     2     3     4   ar
     3     4     5   ar
     4     5     1    1
     5     1    16    1
     6    17    16    1
     7    17    18    2
     8    17    19    1
     9    19    20    1
    10    20    21    1
    11    21    22    1
    12    22    24    1
    13    24    25   ar
    14    25    26   ar
    15    26    27   ar
    16    27    28   ar
    17    28    29   ar
    18    22    23    1
    19     5     6   ar
    20     6     7   ar
    21     7     8   ar
    22     8     9    1
    23     7    10    1
    24    10    11    1
    25    11    12   ar
    26    12    13   ar
    27    13    14   ar
    28    14    15   ar
    29     8     3   ar
    30    15    11   ar
    31    23    17    1
    32    15     6    1
    33    29    24   ar
@<TRIPOS>MOLECULE
*****
 29 33 0 0 0
SMALL
GASTEIGER

@<TRIPOS>ATOM
      1 O          61.8499   87.9076   12.0561 O.3     1  UNL1       -0.4630
      2 C          62.6324   85.1138    7.7454 C.3     1  UNL1        0.0308
      3 C          62.7743   85.2798    9.2294 C.ar    1  UNL1       -0.0231
      4 C          62.2411   86.5107    9.9008 C.ar    1  UNL1        0.0324
      5 C          62.3831   86.6767   11.3848 C.ar    1  UNL1        0.1402
      6 C          63.0581   85.6119   12.1974 C.ar    1  UNL1        0.0479
      7 C          63.5913   84.3810   11.5260 C.ar    1  UNL1       -0.0171
      8 C          63.4494   84.2150   10.0420 C.ar    1  UNL1       -0.0292
      9 C          63.9826   82.9841    9.3707 C.3     1  UNL1        0.0304
     10 C          64.2047   83.5072   12.5797 C.3     1  UNL1        0.0606
     11 C          64.0506   84.1980   13.9023 C.ar    1  UNL1        0.0308
     12 S          64.3345   84.0848   15.3708 S.2     1  UNL1       -0.0685
     13 C          63.8013   85.3157   16.0421 C.ar    1  UNL1        0.1342
     14 N          63.1880   86.1895   14.9885 N.ar    1  UNL1       -0.2365
     15 C          63.3420   85.4988   13.6660 C.ar    1  UNL1        0.0868
     16 C          62.2181   89.2652   11.5352 C.3     1  UNL1        0.3201
     17 P          63.3339   90.0368   12.1753 P.3     1  UNL1        0.3873
     18 O          63.0255   89.0643   13.2749 O.2     1  UNL1       -0.2539
     19 O          63.2548   90.7413   10.8534 O.3     1  UNL1       -0.2916
     20 C          64.1843   91.8797   10.5534 C.3     1  UNL1        0.1544
     21 C          65.1930   92.3136   11.5754 C.3     1  UNL1        0.0688
     22 C          65.2721   91.6091   12.8973 C.3     1  UNL1        0.1661
     23 O          64.3425   90.4707   13.1972 O.3     1  UNL1       -0.2880
     24 C          66.2807   92.0430   13.9192 C.ar    1  UNL1        0.0866
     25 C          65.8511   92.3067   15.3320 C.ar    1  UNL1        0.0172
     26 C          66.8597   92.7405   16.3540 C.ar    1  UNL1        0.0029
     27 C          68.2979   92.9107   15.9633 C.ar    1  UNL1        0.0207
     28 C          68.7275   92.6470   14.5505 C.ar    1  UNL1        0.0985
     29 N          67.7188   92.2131   13.5285 N.ar    1  UNL1       -0.2457
@<TRIPOS>BOND
     1     2     3    1
     2     3     4   ar
     3     4     5   ar
     4     5     1    1
     5     1    16    1
     6    17    16    1
     7    17    18    2
     8    17    19    1
     9    19    20    1
    10    20    21    1
    11    21    22    1
    12    22    24    1
    13    24    25   ar
    14    25    26   ar
    15    26    27   ar
    16    27    28   ar
    17    28    29   ar
    18    22    23    1
    19     5     6   ar
    20     6     7   ar
    21     7     8   ar
    22     8     9    1
    23     7    10    1
    24    10    11    1
    25    11    12   ar
    26    12    13   ar
    27    13    14   ar
    28    14    15   ar
    29     8     3   ar
    30    15    11   ar
    31    23    17    1
    32    15     6    1
    33    29    24   ar
@<TRIPOS>MOLECULE
*****
 29 33 0 0 0
SMALL
GASTEIGER

@<TRIPOS>ATOM
      1 O          62.2810   86.5728   10.4454 O.3     1  UNL1       -0.4630
      2 C          62.8949   82.0205   12.8744 C.3     1  UNL1        0.0308
      3 C          63.0432   83.5130   12.8552 C.ar    1  UNL1       -0.0231
      4 C          62.5879   84.2967   11.6598 C.ar    1  UNL1        0.0324
      5 C          62.7363   85.7892   11.6407 C.ar    1  UNL1        0.1402
      6 C          63.3397   86.4981   12.8167 C.ar    1  UNL1        0.0479
      7 C          63.7950   85.7145   14.0121 C.ar    1  UNL1       -0.0171
      8 C          63.6467   84.2220   14.0313 C.ar    1  UNL1       -0.0292
      9 C          64.1019   83.4384   15.2266 C.3     1  UNL1        0.0304
     10 C          64.3485   86.6812   15.0166 C.3     1  UNL1        0.0606
     11 C          64.2353   88.0623   14.4422 C.ar    1  UNL1        0.0308
     12 S          64.5075   89.5132   14.7081 S.2     1  UNL1       -0.0685
     13 C          64.0522   90.2968   13.5128 C.ar    1  UNL1        0.1342
     14 N          63.4987   89.3301   12.5082 N.ar    1  UNL1       -0.2365
     15 C          63.6119   87.9491   13.0826 C.ar    1  UNL1        0.0868
     16 C          61.1500   87.5495   10.5752 C.3     1  UNL1        0.3201
     17 P          60.6010   88.2277    9.3551 P.3     1  UNL1        0.3873
     18 O          61.3411   89.3735    9.9793 O.2     1  UNL1       -0.2539
     19 O          60.0515   86.8465    9.1547 O.3     1  UNL1       -0.2916
     20 C          59.2101   86.5414    7.9510 C.3     1  UNL1        0.1544
     21 C          58.9181   87.6176    6.9476 C.3     1  UNL1        0.0688
     22 C          59.4676   88.9989    7.1481 C.3     1  UNL1        0.1661
     23 O          60.3091   89.3040    8.3519 O.3     1  UNL1       -0.2880
     24 C          59.1757   90.0751    6.1449 C.ar    1  UNL1        0.0866
     25 C          60.3011   90.7371    5.4062 C.ar    1  UNL1        0.0172
     26 C          60.0092   91.8133    4.4030 C.ar    1  UNL1        0.0029
     27 C          58.5921   92.2276    4.1383 C.ar    1  UNL1        0.0207
     28 C          57.4668   91.5657    4.8769 C.ar    1  UNL1        0.0985
     29 N          57.7587   90.4894    5.8802 N.ar    1  UNL1       -0.2457
@<TRIPOS>BOND
     1     2     3    1
     2     3     4   ar
     3     4     5   ar
     4     5     1    1
     5     1    16    1
     6    17    16    1
     7    17    18    2
     8    17    19    1
     9    19    20    1
    10    20    21    1
    11    21    22    1
    12    22    24    1
    13    24    25   ar
    14    25    26   ar
    15    26    27   ar
    16    27    28   ar
    17    28    29   ar
    18    22    23    1
    19     5     6   ar
    20     6     7   ar
    21     7     8   ar
    22     8     9    1
    23     7    10    1
    24    10    11    1
    25    11    12   ar
    26    12    13   ar
    27    13    14   ar
    28    14    15   ar
    29     8     3   ar
    30    15    11   ar
    31    23    17    1
    32    15     6    1
    33    29    24   ar
@<TRIPOS>MOLECULE
*****
 29 33 0 0 0
SMALL
GASTEIGER

@<TRIPOS>ATOM
      1 O          61.5071   88.8745   12.0579 O.3     1  UNL1       -0.4630
      2 C          64.1065   84.4517   12.8841 C.3     1  UNL1        0.0308
      3 C          63.2296   85.2994   12.0109 C.ar    1  UNL1       -0.0231
      4 C          62.8068   86.6632   12.4710 C.ar    1  UNL1        0.0324
      5 C          61.9299   87.5108   11.5978 C.ar    1  UNL1        0.1402
      6 C          61.4758   86.9949   10.2646 C.ar    1  UNL1        0.0479
      7 C          61.8986   85.6312    9.8045 C.ar    1  UNL1       -0.0171
      8 C          62.7755   84.7835   10.6777 C.ar    1  UNL1       -0.0292
      9 C          63.1982   83.4198   10.2176 C.3     1  UNL1        0.0304
     10 C          61.2983   85.3920    8.4508 C.3     1  UNL1        0.0606
     11 C          60.5046   86.6078    8.0742 C.ar    1  UNL1        0.0308
     12 S          59.6431   87.2113    7.0048 S.2     1  UNL1       -0.0685
     13 C          59.2204   88.5750    7.4649 C.ar    1  UNL1        0.1342
     14 N          59.8206   88.8143    8.8186 N.ar    1  UNL1       -0.2365
     15 C          60.6143   87.5985    9.1952 C.ar    1  UNL1        0.0868
     16 C          62.2914   90.0833   11.6410 C.3     1  UNL1        0.3201
     17 P          63.4366   90.5616   12.4834 P.3     1  UNL1        0.3873
     18 O          63.8816   91.0506   11.1370 O.2     1  UNL1       -0.2539
     19 O          62.5939   89.9064   13.5372 O.3     1  UNL1       -0.2916
     20 C          63.0509   89.8994   14.9659 C.3     1  UNL1        0.1544
     21 C          64.3507   90.5476   15.3407 C.3     1  UNL1        0.0688
     22 C          65.1935   91.2027   14.2869 C.3     1  UNL1        0.1661
     23 O          64.7364   91.2097   12.8581 O.3     1  UNL1       -0.2880
     24 C          66.4932   91.8508   14.6616 C.ar    1  UNL1        0.0866
     25 C          66.5935   92.6559   15.9233 C.ar    1  UNL1        0.0172
     26 C          67.8933   93.3040   16.2981 C.ar    1  UNL1        0.0029
     27 C          69.0928   93.1471   15.4113 C.ar    1  UNL1        0.0207
     28 C          68.9925   92.3420   14.1496 C.ar    1  UNL1        0.0985
     29 N          67.6928   91.6939   13.7748 N.ar    1  UNL1       -0.2457
@<TRIPOS>BOND
     1     2     3    1
     2     3     4   ar
     3     4     5   ar
     4     5     1    1
     5     1    16    1
     6    17    16    1
     7    17    18    2
     8    17    19    1
     9    19    20    1
    10    20    21    1
    11    21    22    1
    12    22    24    1
    13    24    25   ar
    14    25    26   ar
    15    26    27   ar
    16    27    28   ar
    17    28    29   ar
    18    22    23    1
    19     5     6   ar
    20     6     7   ar
    21     7     8   ar
    22     8     9    1
    23     7    10    1
    24    10    11    1
    25    11    12   ar
    26    12    13   ar
    27    13    14   ar
    28    14    15   ar
    29     8     3   ar
    30    15    11   ar
    31    23    17    1
    32    15     6    1
    33    29    24   ar
