@<TRIPOS>MOLECULE
*****
 60 66 0 0 0
SMALL
GASTEIGER

@<TRIPOS>ATOM
      1 N          63.7607   86.0702   16.0458 N.3     1  UNL1       -0.1862
      2 C          63.8876   84.5923   16.2683 C.3     1  UNL1        0.1775
      3 C          63.7802   83.6472   15.1084 C.2     1  UNL1        0.2452
      4 O          63.9072   82.1692   15.3310 O.2     1  UNL1       -0.2732
      5 N          63.5459   84.1801   13.7260 N.am    1  UNL1       -0.2541
      6 C          63.4385   83.2351   12.5661 C.3     1  UNL1        0.1577
      7 C          63.2042   83.7680   11.1837 C.2     1  UNL1        0.2445
      8 O          63.0968   82.8229   10.0238 O.2     1  UNL1       -0.2731
      9 N          63.0773   85.2460   10.9612 N.am    1  UNL1       -0.2705
     10 C          63.1847   86.1910   12.1211 C.3     1  UNL1        0.1359
     11 C          63.4190   85.6581   13.5035 C.3     1  UNL1        0.1908
     12 N          63.5264   86.6031   14.6634 N.am    1  UNL1       -0.1863
     13 C          63.3994   88.0811   14.4409 C.2     1  UNL1        0.3191
     14 O          63.1651   88.6140   13.0585 O.2     1  UNL1       -0.2512
     15 N          63.5068   89.0262   15.6008 N.am    1  UNL1       -0.2836
     16 H          63.6606   88.6764   16.5081 H       1  UNL1        0.1513
     17 C          63.8681   87.0153   17.2057 C.3     1  UNL1        0.1188
     18 C          62.6992   87.0467   19.5258 C.2     1  UNL1       -0.0034
     19 C          62.6626   87.3076   18.0491 C.2     1  UNL1       -0.0071
     20 C          63.5655   81.7572   12.7886 C.3     1  UNL1        0.0556
     21 C          62.3738   80.9600   13.2297 C.ar    1  UNL1       -0.0198
     22 C          61.1445   81.6613   13.7265 C.ar    1  UNL1       -0.0011
     23 C          59.9528   80.8642   14.1676 C.ar    1  UNL1        0.0363
     24 C          59.9905   79.3657   14.1118 C.ar    1  UNL1        0.1337
     25 O          58.7988   78.5686   14.5528 O.3     1  UNL1       -0.5055
     26 C          61.2198   78.6643   13.6149 C.ar    1  UNL1        0.0363
     27 C          62.4115   79.4615   13.1739 C.ar    1  UNL1       -0.0011
     28 H          58.0309   79.0067   14.8632 H       1  UNL1        0.2922
     29 C          62.8430   85.7789    9.5788 C.3     1  UNL1        0.1217
     30 C          62.1285   87.0842    9.3892 C.ar    1  UNL1        0.0135
     31 C          62.4785   88.2624   10.2490 C.ar    1  UNL1       -0.0012
     32 C          61.7642   89.5677   10.0595 C.ar    1  UNL1       -0.0002
     33 C          60.6999   89.6947    9.0102 C.ar    1  UNL1        0.0016
     34 C          60.3499   88.5164    8.1504 C.ar    1  UNL1        0.0214
     35 C          59.3526   88.3425    7.0436 C.ar    1  UNL1        0.0721
     36 C          59.4505   86.9298    6.5491 C.ar    1  UNL1        0.0805
     37 N          60.5084   86.2306    7.3502 N.ar    1  UNL1       -0.3241
     38 C          60.9355   84.8017    7.1899 C.3     1  UNL1        0.1305
     39 C          61.0642   87.2112    8.3399 C.ar    1  UNL1        0.0577
     40 C          58.4208   89.3964    6.5227 C.2     1  UNL1        0.2506
     41 O          56.9781   89.3915    6.9335 O.2     1  UNL1       -0.2699
     42 N          58.9317   90.4552    5.5911 N.am    1  UNL1       -0.2732
     43 C          58.0000   91.5091    5.0702 C.3     1  UNL1        0.1110
     44 C          58.5109   92.5678    4.1386 C.3     1  UNL1        0.0939
     45 N          59.9536   92.5728    3.7278 N.3     1  UNL1       -0.2697
     46 C          60.8853   91.5189    4.2487 C.3     1  UNL1        0.0939
     47 C          60.3744   90.4601    5.1803 C.3     1  UNL1        0.1110
     48 C          60.4645   93.6316    2.7962 C.3     1  UNL1        0.0736
     49 C          61.4146   93.2662    1.6945 C.3     1  UNL1        0.0346
     50 C          62.8910   93.4495    1.8858 C.3     1  UNL1        0.0736
     51 N          63.7514   93.8646    0.7294 N.3     1  UNL1       -0.2703
     52 C          63.1587   94.6508   -0.4023 C.3     1  UNL1        0.0897
     53 C          65.2046   93.4936    0.7046 C.3     1  UNL1        0.0897
     54 C          63.3799   90.5041   15.3782 C.3     1  UNL1        0.1177
     55 C          64.5898   91.3153   15.0204 C.ar    1  UNL1       -0.0025
     56 C          65.3540   92.0349   16.0919 C.ar    1  UNL1       -0.0026
     57 C          66.5639   92.8461   15.7341 C.ar    1  UNL1       -0.0003
     58 C          67.0096   92.9378   14.3048 C.ar    1  UNL1       -0.0000
     59 C          66.2453   92.2182   13.2332 C.ar    1  UNL1       -0.0003
     60 C          65.0354   91.4070   13.5910 C.ar    1  UNL1       -0.0026
@<TRIPOS>BOND
     1    18    19    2
     2    19    17    1
     3    17     1    1
     4     1     2    1
     5     2     3    1
     6     3     4    2
     7     3     5   am
     8     5     6    1
     9     6    20    1
    10    20    21    1
    11    21    22   ar
    12    22    23   ar
    13    23    24   ar
    14    24    25    1
    15    24    26   ar
    16    26    27   ar
    17     6     7    1
    18     7     8    2
    19     7     9   am
    20     9    29    1
    21    29    30    1
    22    30    31   ar
    23    31    32   ar
    24    32    33   ar
    25    33    34   ar
    26    34    35   ar
    27    35    40    1
    28    40    41    2
    29    40    42   am
    30    42    43    1
    31    43    44    1
    32    44    45    1
    33    45    48    1
    34    48    49    1
    35    49    50    1
    36    50    51    1
    37    51    52    1
    38    51    53    1
    39    45    46    1
    40    46    47    1
    41    35    36   ar
    42    36    37   ar
    43    37    38    1
    44    37    39   ar
    45     9    10    1
    46    11    10    1
    47    11    12    1
    48    12    13   am
    49    13    14    2
    50    13    15   am
    51    15    54    1
    52    54    55    1
    53    55    56   ar
    54    56    57   ar
    55    57    58   ar
    56    58    59   ar
    57    59    60   ar
    58    12     1    1
    59    60    55   ar
    60    11     5    1
    61    27    21   ar
    62    39    30   ar
    63    39    34   ar
    64    47    42    1
    65    25    28    1
    66    15    16    1
@<TRIPOS>MOLECULE
*****
 60 66 0 0 0
SMALL
GASTEIGER

@<TRIPOS>ATOM
      1 N          61.3496   85.7155    8.3756 N.3     1  UNL1       -0.1862
      2 C          62.2418   84.5880    8.8028 C.3     1  UNL1        0.1775
      3 C          62.9644   84.6594   10.1154 C.2     1  UNL1        0.2452
      4 O          63.8566   83.5318   10.5426 O.2     1  UNL1       -0.2732
      5 N          62.7948   85.8583   11.0006 N.am    1  UNL1       -0.2541
      6 C          63.5174   85.9297   12.3132 C.3     1  UNL1        0.1577
      7 C          63.3478   87.1287   13.1984 C.2     1  UNL1        0.2445
      8 O          64.0704   87.2001   14.5109 O.2     1  UNL1       -0.2731
      9 N          62.4556   88.2563   12.7712 N.am    1  UNL1       -0.2705
     10 C          61.7330   88.1849   11.4586 C.3     1  UNL1        0.1359
     11 C          61.9026   86.9858   10.5734 C.3     1  UNL1        0.1908
     12 N          61.1800   86.9144    9.2608 N.am    1  UNL1       -0.1863
     13 C          60.2877   88.0421    8.8336 C.2     1  UNL1        0.3191
     14 O          60.1181   89.2410    9.7188 O.2     1  UNL1       -0.2512
     15 N          59.5651   87.9707    7.5211 N.am    1  UNL1       -0.2836
     16 H          59.6764   87.1837    6.9400 H       1  UNL1        0.1513
     17 C          60.6269   85.6441    7.0630 C.3     1  UNL1        0.1188
     18 C          62.4997   84.4191    5.7431 C.2     1  UNL1       -0.0034
     19 C          61.0440   84.6387    6.0310 C.2     1  UNL1       -0.0071
     20 C          64.4096   84.8022   12.7404 C.3     1  UNL1        0.0556
     21 C          63.8137   83.4875   13.1484 C.ar    1  UNL1       -0.0198
     22 C          62.5969   83.4553   14.0249 C.ar    1  UNL1       -0.0011
     23 C          62.0009   82.1406   14.4328 C.ar    1  UNL1        0.0363
     24 C          62.6218   80.8581   13.9643 C.ar    1  UNL1        0.1337
     25 O          62.0259   79.5434   14.3723 O.3     1  UNL1       -0.5055
     26 C          63.8387   80.8902   13.0878 C.ar    1  UNL1        0.0363
     27 C          64.4347   82.2049   12.6798 C.ar    1  UNL1       -0.0011
     28 H          61.2658   79.5233   14.9198 H       1  UNL1        0.2922
     29 C          62.2860   89.4552   13.6564 C.3     1  UNL1        0.1217
     30 C          63.4403   90.3842   13.8903 C.ar    1  UNL1        0.0135
     31 C          64.0974   90.4394   15.2376 C.ar    1  UNL1       -0.0012
     32 C          65.2517   91.3683   15.4715 C.ar    1  UNL1       -0.0002
     33 C          65.7489   92.2419   14.3582 C.ar    1  UNL1        0.0016
     34 C          65.0918   92.1866   13.0109 C.ar    1  UNL1        0.0214
     35 C          65.3607   92.9230   11.7321 C.ar    1  UNL1        0.0721
     36 C          64.3726   92.4492   10.7078 C.ar    1  UNL1        0.0805
     37 N          63.4930   91.4201   11.3536 N.ar    1  UNL1       -0.3241
     38 C          62.3667   90.6826   10.6921 C.3     1  UNL1        0.1305
     39 C          63.9375   91.2577   12.7770 C.ar    1  UNL1        0.0577
     40 C          66.4300   93.9525   11.5155 C.2     1  UNL1        0.2506
     41 O          67.4113   94.2560   12.6087 O.2     1  UNL1       -0.2699
     42 N          66.5181   94.6784   10.2058 N.am    1  UNL1       -0.2732
     43 C          67.5873   95.7078    9.9892 C.3     1  UNL1        0.1110
     44 C          67.6754   96.4336    8.6795 C.3     1  UNL1        0.0939
     45 N          66.6942   96.1301    7.5863 N.3     1  UNL1       -0.2697
     46 C          65.6249   95.1006    7.8030 C.3     1  UNL1        0.0939
     47 C          65.5368   94.3747    9.1127 C.3     1  UNL1        0.1110
     48 C          66.7822   96.8560    6.2766 C.3     1  UNL1        0.0736
     49 C          65.6210   96.8339    5.3274 C.3     1  UNL1        0.0346
     50 C          65.6159   95.8788    4.1708 C.3     1  UNL1        0.0736
     51 N          64.9532   96.2653    2.8818 N.3     1  UNL1       -0.2703
     52 C          65.6694   96.0618    1.5797 C.3     1  UNL1        0.0897
     53 C          63.5742   96.8552    2.8951 C.3     1  UNL1        0.0897
     54 C          58.6729   89.0982    7.0938 C.3     1  UNL1        0.1177
     55 C          59.1506   90.0865    6.0715 C.ar    1  UNL1       -0.0025
     56 C          60.6035   90.1413    5.7029 C.ar    1  UNL1       -0.0026
     57 C          61.0812   91.1297    4.6806 C.ar    1  UNL1       -0.0003
     58 C          60.1059   92.0633    4.0271 C.ar    1  UNL1       -0.0000
     59 C          58.6529   92.0085    4.3957 C.ar    1  UNL1       -0.0003
     60 C          58.1752   91.0202    5.4179 C.ar    1  UNL1       -0.0026
@<TRIPOS>BOND
     1    18    19    2
     2    19    17    1
     3    17     1    1
     4     1     2    1
     5     2     3    1
     6     3     4    2
     7     3     5   am
     8     5     6    1
     9     6    20    1
    10    20    21    1
    11    21    22   ar
    12    22    23   ar
    13    23    24   ar
    14    24    25    1
    15    24    26   ar
    16    26    27   ar
    17     6     7    1
    18     7     8    2
    19     7     9   am
    20     9    29    1
    21    29    30    1
    22    30    31   ar
    23    31    32   ar
    24    32    33   ar
    25    33    34   ar
    26    34    35   ar
    27    35    40    1
    28    40    41    2
    29    40    42   am
    30    42    43    1
    31    43    44    1
    32    44    45    1
    33    45    48    1
    34    48    49    1
    35    49    50    1
    36    50    51    1
    37    51    52    1
    38    51    53    1
    39    45    46    1
    40    46    47    1
    41    35    36   ar
    42    36    37   ar
    43    37    38    1
    44    37    39   ar
    45     9    10    1
    46    11    10    1
    47    11    12    1
    48    12    13   am
    49    13    14    2
    50    13    15   am
    51    15    54    1
    52    54    55    1
    53    55    56   ar
    54    56    57   ar
    55    57    58   ar
    56    58    59   ar
    57    59    60   ar
    58    12     1    1
    59    60    55   ar
    60    11     5    1
    61    27    21   ar
    62    39    30   ar
    63    39    34   ar
    64    47    42    1
    65    25    28    1
    66    15    16    1
