@<TRIPOS>MOLECULE
*****
 32 36 0 0 0
SMALL
GASTEIGER

@<TRIPOS>ATOM
      1 C          63.8509   91.2830   11.6377 C.ar    1  UNL1        0.1646
      2 N          64.0488   89.9542   12.3047 N.ar    1  UNL1       -0.2224
      3 C          63.0872   88.9799   11.6913 C.ar    1  UNL1        0.1074
      4 C          62.2951   89.7067   10.6453 C.ar    1  UNL1        0.0588
      5 S          62.7670   91.1301   10.6122 S.2     1  UNL1       -0.0508
      6 C          62.9431   87.5329   12.0594 C.ar    1  UNL1        0.1026
      7 C          62.1424   86.6130   11.1862 C.ar    1  UNL1        0.0224
      8 C          61.9983   85.1661   11.5542 C.ar    1  UNL1        0.0239
      9 C          62.6550   84.6390   12.7956 C.ar    1  UNL1        0.1189
     10 C          63.4558   85.5589   13.6688 C.ar    1  UNL1        0.2416
     11 N          63.5999   87.0059   13.3007 N.ar    1  UNL1       -0.2089
     12 N          62.5109   83.1920   13.1637 N.ar    1  UNL1       -0.2826
     13 C          62.1349   82.6590   14.5144 C.ar    1  UNL1        0.1826
     14 N          62.1091   81.1616   14.4312 N.ar    1  UNL1       -0.2280
     15 C          62.4692   80.7691   13.0289 C.ar    1  UNL1        0.0786
     16 C          62.5642   79.3676   12.5025 C.3     1  UNL1        0.0538
     17 C          62.7175   82.0239   12.2456 C.ar    1  UNL1        0.0963
     18 O          64.1125   85.0317   14.9101 O.3     1  UNL1       -0.4551
     19 C          63.7534   85.6039   16.2494 C.3     1  UNL1        0.2543
     20 N          64.6046   92.5437   11.9428 N.pl3   1  UNL1       -0.2786
     21 H          64.1600   93.4173   11.8518 H       1  UNL1        0.1555
     22 N          67.2335   92.3768   11.4884 N.ar    1  UNL1       -0.2383
     23 N          68.4584   92.3306   12.3529 N.ar    1  UNL1       -0.1729
     24 C          68.0178   92.3984   13.7852 C.ar    1  UNL1        0.0773
     25 C          66.5205   92.4865   13.8058 C.ar    1  UNL1        0.0244
     26 C          66.0358   92.4731   12.3864 C.ar    1  UNL1        0.1275
     27 C          65.7920   92.5674   15.1145 C.3     1  UNL1        0.0305
     28 C          66.5608   92.5604   16.4025 C.3     1  UNL1        0.0052
     29 C          68.0580   92.4723   16.3818 C.3     1  UNL1        0.0067
     30 C          68.7866   92.3913   15.0731 C.3     1  UNL1        0.0474
     31 C          68.4972   92.3370    9.2188 C.3     1  UNL1        0.0285
     32 C          67.2102   92.3341    9.9892 C.3     1  UNL1        0.1289
@<TRIPOS>BOND
     1    31    32    1
     2    32    22    1
     3    22    23   ar
     4    23    24   ar
     5    24    25   ar
     6    25    26   ar
     7    26    20    1
     8    20     1    1
     9     1     2   ar
    10     2     3   ar
    11     3     6    1
    12     6     7   ar
    13     7     8   ar
    14     8     9   ar
    15     9    12    1
    16    12    13   ar
    17    13    14   ar
    18    14    15   ar
    19    15    16    1
    20    15    17   ar
    21     9    10   ar
    22    10    18    1
    23    18    19    1
    24    10    11   ar
    25     3     4   ar
    26     4     5   ar
    27    25    27    1
    28    27    28    1
    29    28    29    1
    30    29    30    1
    31    26    22   ar
    32     5     1   ar
    33    30    24    1
    34    11     6   ar
    35    17    12   ar
    36    20    21    1
@<TRIPOS>MOLECULE
*****
 32 36 0 0 0
SMALL
GASTEIGER

@<TRIPOS>ATOM
      1 C          60.9675   88.1108   11.1609 C.ar    1  UNL1        0.1646
      2 N          62.3755   88.3563   11.6161 N.ar    1  UNL1       -0.2224
      3 C          62.4552   89.7596   12.1399 C.ar    1  UNL1        0.1074
      4 C          61.0965   90.3813   12.0085 C.ar    1  UNL1        0.0588
      5 S          60.1770   89.3623   11.4034 S.2     1  UNL1       -0.0508
      6 C          63.6788   90.4244   12.6974 C.ar    1  UNL1        0.1026
      7 C          64.2847   89.9288   13.9769 C.ar    1  UNL1        0.0224
      8 C          65.5083   90.5936   14.5343 C.ar    1  UNL1        0.0239
      9 C          66.1261   91.7542   13.8121 C.ar    1  UNL1        0.1189
     10 C          65.5202   92.2498   12.5326 C.ar    1  UNL1        0.2416
     11 N          64.2966   91.5850   11.9752 N.ar    1  UNL1       -0.2089
     12 N          67.3497   92.4190   14.3696 N.ar    1  UNL1       -0.2826
     13 C          68.7705   92.0743   14.0343 C.ar    1  UNL1        0.1826
     14 N          69.6663   92.9875   14.8177 N.ar    1  UNL1       -0.2280
     15 C          68.7990   93.8966   15.6371 C.ar    1  UNL1        0.0786
     16 C          69.2793   94.9689   16.5698 C.3     1  UNL1        0.0538
     17 C          67.3673   93.5453   15.3602 C.ar    1  UNL1        0.0963
     18 O          66.1380   93.4104   11.8105 O.3     1  UNL1       -0.4551
     19 C          66.8750   93.1866   10.5234 C.3     1  UNL1        0.2543
     20 N          60.4421   86.8372   10.5673 N.pl3   1  UNL1       -0.2786
     21 H          59.4813   86.6291   10.6202 H       1  UNL1        0.1555
     22 N          61.4777   85.6339    8.4169 N.ar    1  UNL1       -0.2383
     23 N          62.5440   84.6039    8.1883 N.ar    1  UNL1       -0.1729
     24 C          63.1059   84.2143    9.5234 C.ar    1  UNL1        0.0773
     25 C          62.3870   85.0035   10.5771 C.ar    1  UNL1        0.0244
     26 C          61.3807   85.8808    9.8932 C.ar    1  UNL1        0.1275
     27 C          62.7414   84.8213   12.0231 C.3     1  UNL1        0.0305
     28 C          63.8149   83.8499   12.4155 C.3     1  UNL1        0.0052
     29 C          64.5339   83.0607   11.3618 C.3     1  UNL1        0.0067
     30 C          64.1794   83.2429    9.9158 C.3     1  UNL1        0.0474
     31 C          59.2330   86.6879    7.6421 C.3     1  UNL1        0.0285
     32 C          60.6533   86.3000    7.3554 C.3     1  UNL1        0.1289
@<TRIPOS>BOND
     1    31    32    1
     2    32    22    1
     3    22    23   ar
     4    23    24   ar
     5    24    25   ar
     6    25    26   ar
     7    26    20    1
     8    20     1    1
     9     1     2   ar
    10     2     3   ar
    11     3     6    1
    12     6     7   ar
    13     7     8   ar
    14     8     9   ar
    15     9    12    1
    16    12    13   ar
    17    13    14   ar
    18    14    15   ar
    19    15    16    1
    20    15    17   ar
    21     9    10   ar
    22    10    18    1
    23    18    19    1
    24    10    11   ar
    25     3     4   ar
    26     4     5   ar
    27    25    27    1
    28    27    28    1
    29    28    29    1
    30    29    30    1
    31    26    22   ar
    32     5     1   ar
    33    30    24    1
    34    11     6   ar
    35    17    12   ar
    36    20    21    1
@<TRIPOS>MOLECULE
*****
 32 36 0 0 0
SMALL
GASTEIGER

@<TRIPOS>ATOM
      1 C          63.4819   86.9743   14.6015 C.ar    1  UNL1        0.1646
      2 N          63.9553   87.9060   13.5255 N.ar    1  UNL1       -0.2224
      3 C          64.1980   89.2487   14.1487 C.ar    1  UNL1        0.1074
      4 C          63.8745   89.1468   15.6098 C.ar    1  UNL1        0.0588
      5 S          63.4319   87.7412   15.8897 S.2     1  UNL1       -0.0508
      6 C          64.6796   90.4774   13.4358 C.ar    1  UNL1        0.1026
      7 C          63.9822   90.9453   12.1930 C.ar    1  UNL1        0.0224
      8 C          64.4638   92.1741   11.4801 C.ar    1  UNL1        0.0239
      9 C          65.6428   92.9350   12.0103 C.ar    1  UNL1        0.1189
     10 C          66.3402   92.4672   13.2531 C.ar    1  UNL1        0.2416
     11 N          65.8586   91.2384   13.9660 N.ar    1  UNL1       -0.2089
     12 N          66.1244   94.1638   11.2974 N.ar    1  UNL1       -0.2826
     13 C          66.1580   95.5536   11.8606 C.ar    1  UNL1        0.1826
     14 N          66.7113   96.4673   10.8075 N.ar    1  UNL1       -0.2280
     15 C          67.0197   95.6421    9.5934 C.ar    1  UNL1        0.0786
     16 C          67.5906   96.1513    8.3031 C.3     1  UNL1        0.0538
     17 C          66.6570   94.2185    9.8962 C.ar    1  UNL1        0.0963
     18 O          67.5191   93.2281   13.7832 O.3     1  UNL1       -0.4551
     19 C          67.6539   93.4709   15.2573 C.3     1  UNL1        0.2543
     20 N          63.1216   85.5293   14.4211 N.pl3   1  UNL1       -0.2786
     21 H          62.8391   84.9920   15.1961 H       1  UNL1        0.1555
     22 N          63.6537   83.5095   12.7531 N.ar    1  UNL1       -0.2383
     23 N          63.5597   83.3059   11.2700 N.ar    1  UNL1       -0.1729
     24 C          63.0398   84.5738   10.6600 C.ar    1  UNL1        0.0773
     25 C          62.8124   85.5611   11.7662 C.ar    1  UNL1        0.0244
     26 C          63.1918   84.9032   13.0598 C.ar    1  UNL1        0.1275
     27 C          62.2893   86.9314   11.4526 C.3     1  UNL1        0.0305
     28 C          61.9936   87.3146   10.0329 C.3     1  UNL1        0.0052
     29 C          62.2210   86.3273    8.9267 C.3     1  UNL1        0.0067
     30 C          62.7441   84.9569    9.2403 C.3     1  UNL1        0.0474
     31 C          63.6241   81.0853   13.6871 C.3     1  UNL1        0.0285
     32 C          64.1265   82.4971   13.7539 C.3     1  UNL1        0.1289
@<TRIPOS>BOND
     1    31    32    1
     2    32    22    1
     3    22    23   ar
     4    23    24   ar
     5    24    25   ar
     6    25    26   ar
     7    26    20    1
     8    20     1    1
     9     1     2   ar
    10     2     3   ar
    11     3     6    1
    12     6     7   ar
    13     7     8   ar
    14     8     9   ar
    15     9    12    1
    16    12    13   ar
    17    13    14   ar
    18    14    15   ar
    19    15    16    1
    20    15    17   ar
    21     9    10   ar
    22    10    18    1
    23    18    19    1
    24    10    11   ar
    25     3     4   ar
    26     4     5   ar
    27    25    27    1
    28    27    28    1
    29    28    29    1
    30    29    30    1
    31    26    22   ar
    32     5     1   ar
    33    30    24    1
    34    11     6   ar
    35    17    12   ar
    36    20    21    1
@<TRIPOS>MOLECULE
*****
 32 36 0 0 0
SMALL
GASTEIGER

@<TRIPOS>ATOM
      1 C          63.7157   86.9956   15.0978 C.ar    1  UNL1        0.1646
      2 N          64.2985   87.8569   14.0168 N.ar    1  UNL1       -0.2224
      3 C          64.2394   89.2830   14.4780 C.ar    1  UNL1        0.1074
      4 C          63.6201   89.3030   15.8440 C.ar    1  UNL1        0.0588
      5 S          63.2964   87.8894   16.2271 S.2     1  UNL1       -0.0508
      6 C          64.7159   90.4790   13.7083 C.ar    1  UNL1        0.1026
      7 C          63.9729   90.9286   12.4853 C.ar    1  UNL1        0.0224
      8 C          64.4494   92.1247   11.7156 C.ar    1  UNL1        0.0239
      9 C          65.6690   92.8711   12.1690 C.ar    1  UNL1        0.1189
     10 C          66.4120   92.4215   13.3920 C.ar    1  UNL1        0.2416
     11 N          65.9354   91.2255   14.1617 N.ar    1  UNL1       -0.2089
     12 N          66.1455   94.0671   11.3993 N.ar    1  UNL1       -0.2826
     13 C          66.1754   95.4816   11.8975 C.ar    1  UNL1        0.1826
     14 N          66.7241   96.3473   10.8024 N.ar    1  UNL1       -0.2280
     15 C          67.0334   95.4679    9.6273 C.ar    1  UNL1        0.0786
     16 C          67.6007   95.9186    8.3138 C.3     1  UNL1        0.0538
     17 C          66.6758   94.0586    9.9962 C.ar    1  UNL1        0.0963
     18 O          67.6315   93.1680   13.8453 O.3     1  UNL1       -0.4551
     19 C          67.7875   93.5434   15.2892 C.3     1  UNL1        0.2543
     20 N          63.5767   85.5025   15.0568 N.pl3   1  UNL1       -0.2786
     21 H          63.7197   84.9722   15.8738 H       1  UNL1        0.1555
     22 N          62.8689   85.4947   12.4792 N.ar    1  UNL1       -0.2383
     23 N          62.5831   84.4309   11.4610 N.ar    1  UNL1       -0.1729
     24 C          62.7572   83.0964   12.1235 C.ar    1  UNL1        0.0773
     25 C          63.1506   83.3354   13.5511 C.ar    1  UNL1        0.0244
     26 C          63.2196   84.8176   13.7709 C.ar    1  UNL1        0.1275
     27 C          63.3951   82.1726   14.4665 C.3     1  UNL1        0.0305
     28 C          63.2462   80.7707   13.9542 C.3     1  UNL1        0.0052
     29 C          62.8529   80.5316   12.5266 C.3     1  UNL1        0.0067
     30 C          62.6083   81.6945   11.6112 C.3     1  UNL1        0.0474
     31 C          62.1854   87.5152   10.9959 C.3     1  UNL1        0.0285
     32 C          62.8136   86.9755   12.2465 C.3     1  UNL1        0.1289
@<TRIPOS>BOND
     1    31    32    1
     2    32    22    1
     3    22    23   ar
     4    23    24   ar
     5    24    25   ar
     6    25    26   ar
     7    26    20    1
     8    20     1    1
     9     1     2   ar
    10     2     3   ar
    11     3     6    1
    12     6     7   ar
    13     7     8   ar
    14     8     9   ar
    15     9    12    1
    16    12    13   ar
    17    13    14   ar
    18    14    15   ar
    19    15    16    1
    20    15    17   ar
    21     9    10   ar
    22    10    18    1
    23    18    19    1
    24    10    11   ar
    25     3     4   ar
    26     4     5   ar
    27    25    27    1
    28    27    28    1
    29    28    29    1
    30    29    30    1
    31    26    22   ar
    32     5     1   ar
    33    30    24    1
    34    11     6   ar
    35    17    12   ar
    36    20    21    1
@<TRIPOS>MOLECULE
*****
 32 36 0 0 0
SMALL
GASTEIGER

@<TRIPOS>ATOM
      1 C          64.8352   91.2701   14.7696 C.ar    1  UNL1        0.1646
      2 N          64.9300   89.9036   14.1582 N.ar    1  UNL1       -0.2224
      3 C          64.0410   88.9830   14.9407 C.ar    1  UNL1        0.1074
      4 C          63.3968   89.7806   16.0356 C.ar    1  UNL1        0.0588
      5 S          63.8876   91.1940   15.9299 S.2     1  UNL1       -0.0508
      6 C          63.8328   87.5215   14.6748 C.ar    1  UNL1        0.1026
      7 C          63.9882   86.5273   15.7872 C.ar    1  UNL1        0.0224
      8 C          63.7800   85.0658   15.5214 C.ar    1  UNL1        0.0239
      9 C          63.4164   84.5986   14.1431 C.ar    1  UNL1        0.1189
     10 C          63.2611   85.5928   13.0308 C.ar    1  UNL1        0.2416
     11 N          63.4693   87.0543   13.2966 N.ar    1  UNL1       -0.2089
     12 N          63.2082   83.1371   13.8773 N.ar    1  UNL1       -0.2826
     13 C          64.1721   82.2211   13.1831 C.ar    1  UNL1        0.1826
     14 N          63.5592   80.8529   13.1358 N.ar    1  UNL1       -0.2280
     15 C          62.2165   80.9232   13.8007 C.ar    1  UNL1        0.0786
     16 C          61.2588   79.7821   13.9764 C.3     1  UNL1        0.0538
     17 C          61.9996   82.3349   14.2589 C.ar    1  UNL1        0.0963
     18 O          62.8975   85.1255   11.6526 O.3     1  UNL1       -0.4551
     19 C          61.7749   85.7859   10.9085 C.3     1  UNL1        0.2543
     20 N          65.5606   92.4972   14.3026 N.pl3   1  UNL1       -0.2786
     21 H          65.2401   93.3895   14.5681 H       1  UNL1        0.1555
     22 N          68.1217   91.8687   13.8654 N.ar    1  UNL1       -0.2383
     23 N          69.0338   91.9028   12.6751 N.ar    1  UNL1       -0.1729
     24 C          68.2503   92.4200   11.5053 C.ar    1  UNL1        0.0773
     25 C          66.8539   92.7057   11.9726 C.ar    1  UNL1        0.0244
     26 C          66.7744   92.3649   13.4312 C.ar    1  UNL1        0.1275
     27 C          65.8351   93.2391   11.0095 C.3     1  UNL1        0.0305
     28 C          66.2128   93.4869    9.5792 C.3     1  UNL1        0.0052
     29 C          67.6093   93.2013    9.1119 C.3     1  UNL1        0.0067
     30 C          68.6280   92.6678   10.0750 C.3     1  UNL1        0.0474
     31 C          68.3143   92.3460   16.4120 C.3     1  UNL1        0.0285
     32 C          68.4918   91.4176   15.2473 C.3     1  UNL1        0.1289
@<TRIPOS>BOND
     1    31    32    1
     2    32    22    1
     3    22    23   ar
     4    23    24   ar
     5    24    25   ar
     6    25    26   ar
     7    26    20    1
     8    20     1    1
     9     1     2   ar
    10     2     3   ar
    11     3     6    1
    12     6     7   ar
    13     7     8   ar
    14     8     9   ar
    15     9    12    1
    16    12    13   ar
    17    13    14   ar
    18    14    15   ar
    19    15    16    1
    20    15    17   ar
    21     9    10   ar
    22    10    18    1
    23    18    19    1
    24    10    11   ar
    25     3     4   ar
    26     4     5   ar
    27    25    27    1
    28    27    28    1
    29    28    29    1
    30    29    30    1
    31    26    22   ar
    32     5     1   ar
    33    30    24    1
    34    11     6   ar
    35    17    12   ar
    36    20    21    1
@<TRIPOS>MOLECULE
*****
 32 36 0 0 0
SMALL
GASTEIGER

@<TRIPOS>ATOM
      1 C          65.3043   92.3337   13.8268 C.ar    1  UNL1        0.1646
      2 N          65.0055   91.0449   13.1200 N.ar    1  UNL1       -0.2224
      3 C          64.5938   90.0356   14.1506 C.ar    1  UNL1        0.1074
      4 C          64.6383   90.7007   15.4943 C.ar    1  UNL1        0.0588
      5 S          65.0773   92.1210   15.2942 S.2     1  UNL1       -0.0508
      6 C          64.2059   88.6114   13.8841 C.ar    1  UNL1        0.1026
      7 C          64.6075   87.5322   14.8454 C.ar    1  UNL1        0.0224
      8 C          64.2195   86.1080   14.5790 C.ar    1  UNL1        0.0239
      9 C          63.4299   85.7629   13.3512 C.ar    1  UNL1        0.1189
     10 C          63.0284   86.8420   12.3899 C.ar    1  UNL1        0.2416
     11 N          63.4163   88.2663   12.6563 N.ar    1  UNL1       -0.2089
     12 N          63.0420   84.3386   13.0847 N.ar    1  UNL1       -0.2826
     13 C          63.3161   83.5710   11.8256 C.ar    1  UNL1        0.1826
     14 N          62.7553   82.1899   11.9933 N.ar    1  UNL1       -0.2280
     15 C          62.1347   82.1040   13.3562 C.ar    1  UNL1        0.0786
     16 C          61.4560   80.9012   13.9417 C.3     1  UNL1        0.0538
     17 C          62.3119   83.4320   14.0307 C.ar    1  UNL1        0.0963
     18 O          62.2388   86.4969   11.1621 O.3     1  UNL1       -0.4551
     19 C          60.9863   87.2558   10.8379 C.3     1  UNL1        0.2543
     20 N          65.7516   93.6110   13.1799 N.pl3   1  UNL1       -0.2786
     21 H          65.5063   94.4770   13.5787 H       1  UNL1        0.1555
     22 N          67.6940   92.6151   11.6370 N.ar    1  UNL1       -0.2383
     23 N          68.2308   92.9298   10.2722 N.ar    1  UNL1       -0.1729
     24 C          67.4412   94.0780    9.7169 C.ar    1  UNL1        0.0773
     25 C          66.4164   94.4729   10.7385 C.ar    1  UNL1        0.0244
     26 C          66.5726   93.5688   11.9252 C.ar    1  UNL1        0.1275
     27 C          65.4734   95.6047   10.4562 C.3     1  UNL1        0.0305
     28 C          65.5552   96.3415    9.1523 C.3     1  UNL1        0.0052
     29 C          66.5800   95.9466    8.1307 C.3     1  UNL1        0.0067
     30 C          67.5230   94.8148    8.4129 C.3     1  UNL1        0.0474
     31 C          68.8075   91.8972   13.8718 C.3     1  UNL1        0.0285
     32 C          68.1912   91.5362   12.5528 C.3     1  UNL1        0.1289
@<TRIPOS>BOND
     1    31    32    1
     2    32    22    1
     3    22    23   ar
     4    23    24   ar
     5    24    25   ar
     6    25    26   ar
     7    26    20    1
     8    20     1    1
     9     1     2   ar
    10     2     3   ar
    11     3     6    1
    12     6     7   ar
    13     7     8   ar
    14     8     9   ar
    15     9    12    1
    16    12    13   ar
    17    13    14   ar
    18    14    15   ar
    19    15    16    1
    20    15    17   ar
    21     9    10   ar
    22    10    18    1
    23    18    19    1
    24    10    11   ar
    25     3     4   ar
    26     4     5   ar
    27    25    27    1
    28    27    28    1
    29    28    29    1
    30    29    30    1
    31    26    22   ar
    32     5     1   ar
    33    30    24    1
    34    11     6   ar
    35    17    12   ar
    36    20    21    1
@<TRIPOS>MOLECULE
*****
 32 36 0 0 0
SMALL
GASTEIGER

@<TRIPOS>ATOM
      1 C          63.1968   85.4359   14.5038 C.ar    1  UNL1        0.1646
      2 N          63.5468   86.5983   13.6228 N.ar    1  UNL1       -0.2224
      3 C          63.9708   87.7362   14.5034 C.ar    1  UNL1        0.1074
      4 C          63.8828   87.2770   15.9286 C.ar    1  UNL1        0.0588
      5 S          63.4045   85.8553   15.9289 S.2     1  UNL1       -0.0508
      6 C          64.4062   89.0948   14.0401 C.ar    1  UNL1        0.1026
      7 C          65.4155   89.8701   14.8339 C.ar    1  UNL1        0.0224
      8 C          65.8510   91.2287   14.3706 C.ar    1  UNL1        0.0239
      9 C          65.2771   91.8119   13.1133 C.ar    1  UNL1        0.1189
     10 C          64.2678   91.0366   12.3195 C.ar    1  UNL1        0.2416
     11 N          63.8324   89.6780   12.7828 N.ar    1  UNL1       -0.2089
     12 N          65.7126   93.1705   12.6500 N.ar    1  UNL1       -0.2826
     13 C          66.3122   94.2445   13.5084 C.ar    1  UNL1        0.1826
     14 N          66.5951   95.4313   12.6359 N.ar    1  UNL1       -0.2280
     15 C          66.1702   95.0909   11.2382 C.ar    1  UNL1        0.0786
     16 C          66.2728   95.9899   10.0418 C.3     1  UNL1        0.0538
     17 C          65.6248   93.6936   11.2469 C.ar    1  UNL1        0.0963
     18 O          63.6940   91.6199   11.0623 O.3     1  UNL1       -0.4551
     19 C          62.6969   90.8378   10.2597 C.3     1  UNL1        0.2543
     20 N          62.7224   84.0902   14.0409 N.pl3   1  UNL1       -0.2786
     21 H          62.1852   83.5243   14.6413 H       1  UNL1        0.1555
     22 N          63.6284   82.2598   12.3164 N.ar    1  UNL1       -0.2383
     23 N          63.8183   82.2059   10.8294 N.ar    1  UNL1       -0.1729
     24 C          63.3737   83.5194   10.2574 C.ar    1  UNL1        0.0773
     25 C          62.9091   84.3851   11.3908 C.ar    1  UNL1        0.0244
     26 C          63.0665   83.6067   12.6633 C.ar    1  UNL1        0.1275
     27 C          62.4027   85.7704   11.1178 C.3     1  UNL1        0.0305
     28 C          62.3610   86.2899    9.7113 C.3     1  UNL1        0.0052
     29 C          62.8256   85.4242    8.5778 C.3     1  UNL1        0.0067
     30 C          63.3320   84.0389    8.8509 C.3     1  UNL1        0.0474
     31 C          62.8485   80.2749   13.8001 C.3     1  UNL1        0.0285
     32 C          63.9449   81.1601   13.2861 C.3     1  UNL1        0.1289
@<TRIPOS>BOND
     1    31    32    1
     2    32    22    1
     3    22    23   ar
     4    23    24   ar
     5    24    25   ar
     6    25    26   ar
     7    26    20    1
     8    20     1    1
     9     1     2   ar
    10     2     3   ar
    11     3     6    1
    12     6     7   ar
    13     7     8   ar
    14     8     9   ar
    15     9    12    1
    16    12    13   ar
    17    13    14   ar
    18    14    15   ar
    19    15    16    1
    20    15    17   ar
    21     9    10   ar
    22    10    18    1
    23    18    19    1
    24    10    11   ar
    25     3     4   ar
    26     4     5   ar
    27    25    27    1
    28    27    28    1
    29    28    29    1
    30    29    30    1
    31    26    22   ar
    32     5     1   ar
    33    30    24    1
    34    11     6   ar
    35    17    12   ar
    36    20    21    1
@<TRIPOS>MOLECULE
*****
 32 36 0 0 0
SMALL
GASTEIGER

@<TRIPOS>ATOM
      1 C          64.5882   90.3219   15.6119 C.ar    1  UNL1        0.1646
      2 N          64.7832   89.1100   14.7499 N.ar    1  UNL1       -0.2224
      3 C          63.7959   88.0679   15.1849 C.ar    1  UNL1        0.1074
      4 C          62.9906   88.6358   16.3158 C.ar    1  UNL1        0.0588
      5 S          63.4803   90.0288   16.5797 S.2     1  UNL1       -0.0508
      6 C          63.6410   86.6984   14.5930 C.ar    1  UNL1        0.1026
      7 C          64.2354   85.5093   15.2878 C.ar    1  UNL1        0.0224
      8 C          64.0805   84.1398   14.6958 C.ar    1  UNL1        0.0239
      9 C          63.3312   83.9594   13.4089 C.ar    1  UNL1        0.1189
     10 C          62.7368   85.1484   12.7141 C.ar    1  UNL1        0.2416
     11 N          62.8917   86.5179   13.3061 N.ar    1  UNL1       -0.2089
     12 N          63.1763   82.5899   12.8170 N.ar    1  UNL1       -0.2826
     13 C          62.8668   81.3322   13.5735 C.ar    1  UNL1        0.1826
     14 N          62.8030   80.2026   12.5887 N.ar    1  UNL1       -0.2280
     15 C          63.0731   80.7622   11.2234 C.ar    1  UNL1        0.0786
     16 C          63.1066   79.9830    9.9420 C.3     1  UNL1        0.0538
     17 C          63.3038   82.2376   11.3645 C.ar    1  UNL1        0.0963
     18 O          61.9875   84.9679   11.4273 O.3     1  UNL1       -0.4551
     19 C          62.4488   85.6719   10.1857 C.3     1  UNL1        0.2543
     20 N          65.3647   91.6022   15.5220 N.pl3   1  UNL1       -0.2786
     21 H          65.6430   92.0678   16.3435 H       1  UNL1        0.1555
     22 N          66.8660   93.0917   13.8872 N.ar    1  UNL1       -0.2383
     23 N          66.8415   93.4116   12.4220 N.ar    1  UNL1       -0.1729
     24 C          65.6775   92.6906   11.8095 C.ar    1  UNL1        0.0773
     25 C          64.9826   91.9250   12.8962 C.ar    1  UNL1        0.0244
     26 C          65.7172   92.1729   14.1803 C.ar    1  UNL1        0.1275
     27 C          63.7707   91.1010   12.5761 C.3     1  UNL1        0.0305
     28 C          63.2538   91.0427   11.1692 C.3     1  UNL1        0.0052
     29 C          63.9487   91.8083   10.0825 C.3     1  UNL1        0.0067
     30 C          65.1605   92.6322   10.4026 C.3     1  UNL1        0.0474
     31 C          68.7597   92.6393   15.6075 C.3     1  UNL1        0.0285
     32 C          67.8642   93.6011   14.8843 C.3     1  UNL1        0.1289
@<TRIPOS>BOND
     1    31    32    1
     2    32    22    1
     3    22    23   ar
     4    23    24   ar
     5    24    25   ar
     6    25    26   ar
     7    26    20    1
     8    20     1    1
     9     1     2   ar
    10     2     3   ar
    11     3     6    1
    12     6     7   ar
    13     7     8   ar
    14     8     9   ar
    15     9    12    1
    16    12    13   ar
    17    13    14   ar
    18    14    15   ar
    19    15    16    1
    20    15    17   ar
    21     9    10   ar
    22    10    18    1
    23    18    19    1
    24    10    11   ar
    25     3     4   ar
    26     4     5   ar
    27    25    27    1
    28    27    28    1
    29    28    29    1
    30    29    30    1
    31    26    22   ar
    32     5     1   ar
    33    30    24    1
    34    11     6   ar
    35    17    12   ar
    36    20    21    1
@<TRIPOS>MOLECULE
*****
 32 36 0 0 0
SMALL
GASTEIGER

@<TRIPOS>ATOM
      1 C          63.1897   86.6444   15.9925 C.ar    1  UNL1        0.1646
      2 N          63.8092   87.3780   14.8401 N.ar    1  UNL1       -0.2224
      3 C          63.8623   88.8350   15.1929 C.ar    1  UNL1        0.1074
      4 C          63.2756   89.0018   16.5632 C.ar    1  UNL1        0.0588
      5 S          62.8599   87.6480   17.0575 S.2     1  UNL1       -0.0508
      6 C          64.4065   89.9325   14.3272 C.ar    1  UNL1        0.1026
      7 C          63.6665   90.3494   13.0908 C.ar    1  UNL1        0.0224
      8 C          64.2107   91.4468   12.2252 C.ar    1  UNL1        0.0239
      9 C          65.4950   92.1274   12.5960 C.ar    1  UNL1        0.1189
     10 C          66.2350   91.7106   13.8323 C.ar    1  UNL1        0.2416
     11 N          65.6908   90.6131   14.6980 N.ar    1  UNL1       -0.2089
     12 N          66.0392   93.2249   11.7303 N.ar    1  UNL1       -0.2826
     13 C          66.2129   94.6599   12.1310 C.ar    1  UNL1        0.1826
     14 N          66.7863   95.4020   10.9603 N.ar    1  UNL1       -0.2280
     15 C          66.9671   94.4255    9.8361 C.ar    1  UNL1        0.0786
     16 C          67.5137   94.7395    8.4748 C.3     1  UNL1        0.0538
     17 C          66.5054   93.0801   10.3119 C.ar    1  UNL1        0.0963
     18 O          67.5192   92.3913   14.2030 O.3     1  UNL1       -0.4551
     19 C          68.0575   92.2689   15.5978 C.3     1  UNL1        0.2543
     20 N          62.9432   85.1666   16.0669 N.pl3   1  UNL1       -0.2786
     21 H          62.4090   84.7932   16.8047 H       1  UNL1        0.1555
     22 N          64.8287   84.4288   14.3218 N.ar    1  UNL1       -0.2383
     23 N          64.9923   83.2951   13.3533 N.ar    1  UNL1       -0.1729
     24 C          63.7753   82.4235   13.4499 C.ar    1  UNL1        0.0773
     25 C          62.8596   83.0185   14.4783 C.ar    1  UNL1        0.0244
     26 C          63.5107   84.2578   15.0171 C.ar    1  UNL1        0.1275
     27 C          61.5513   82.3550   14.7911 C.3     1  UNL1        0.0305
     28 C          61.1587   81.0965   14.0757 C.3     1  UNL1        0.0052
     29 C          62.0744   80.5015   13.0474 C.3     1  UNL1        0.0067
     30 C          63.3827   81.1650   12.7345 C.3     1  UNL1        0.0474
     31 C          67.2018   85.2239   15.0191 C.3     1  UNL1        0.0285
     32 C          65.8108   85.5385   14.5542 C.3     1  UNL1        0.1289
@<TRIPOS>BOND
     1    31    32    1
     2    32    22    1
     3    22    23   ar
     4    23    24   ar
     5    24    25   ar
     6    25    26   ar
     7    26    20    1
     8    20     1    1
     9     1     2   ar
    10     2     3   ar
    11     3     6    1
    12     6     7   ar
    13     7     8   ar
    14     8     9   ar
    15     9    12    1
    16    12    13   ar
    17    13    14   ar
    18    14    15   ar
    19    15    16    1
    20    15    17   ar
    21     9    10   ar
    22    10    18    1
    23    18    19    1
    24    10    11   ar
    25     3     4   ar
    26     4     5   ar
    27    25    27    1
    28    27    28    1
    29    28    29    1
    30    29    30    1
    31    26    22   ar
    32     5     1   ar
    33    30    24    1
    34    11     6   ar
    35    17    12   ar
    36    20    21    1
