@<TRIPOS>MOLECULE
*****
 33 36 0 0 0
SMALL
GASTEIGER

@<TRIPOS>ATOM
      1 N          63.9791   88.9918   13.9903 N.pl3   1  UNL1       -0.3073
      2 C          64.2314   87.5938   14.4717 C.3     1  UNL1        0.0925
      3 C          63.7669   86.4241   13.6554 C.3     1  UNL1        0.0415
      4 C          63.0502   86.6526   12.3576 C.3     1  UNL1        0.0807
      5 C          62.7979   88.0507   11.8762 C.3     1  UNL1        0.0415
      6 C          63.2624   89.2203   12.6925 C.3     1  UNL1        0.0925
      7 C          66.2801   91.8978   15.4082 C.ar    1  UNL1        0.1234
      8 C          65.3724   92.5006   16.4391 C.ar    1  UNL1        0.0200
      9 C          64.0003   91.9338   16.6537 C.ar    1  UNL1        0.0026
     10 C          63.5359   90.7642   15.8375 C.ar    1  UNL1        0.0146
     11 C          64.4435   90.1614   14.8066 C.ar    1  UNL1        0.0492
     12 C          65.8156   90.7282   14.5920 C.ar    1  UNL1        0.0344
     13 S          67.6522   92.4646   15.1936 S.O2    1  UNL1        0.0634
     14 O          67.4969   93.3068   16.4250 O.2     1  UNL1       -0.1528
     15 O          67.8075   91.6224   13.9621 O.2     1  UNL1       -0.1528
     16 C          69.4850   94.2074   15.7881 C.3     1  UNL1        0.1150
     17 N          69.0243   93.0314   14.9789 N.3     1  UNL1       -0.1526
     18 C          69.9357   92.4222   13.9552 C.3     1  UNL1        0.1150
     19 N          62.5858   85.4830   11.5413 N.pl3   1  UNL1       -0.2872
     20 C          62.6016   84.1037   12.1305 C.ar    1  UNL1        0.0516
     21 C          62.2429   83.9000   13.5726 C.ar    1  UNL1        0.0155
     22 C          62.2588   82.5205   14.1618 C.ar    1  UNL1        0.0116
     23 C          62.6334   81.3450   13.3088 C.ar    1  UNL1        0.0685
     24 C          62.9921   81.5487   11.8666 C.ar    1  UNL1        0.0116
     25 C          62.9762   82.9280   11.2775 C.ar    1  UNL1        0.0155
     26 C          62.6493   79.9656   13.8979 C.1     1  UNL1        0.1004
     27 N          62.6651   78.5862   14.4871 N.1     1  UNL1       -0.1908
     28 C          62.1055   85.6928   10.1359 C.ar    1  UNL1        0.0710
     29 C          62.9278   85.2025    8.9812 C.ar    1  UNL1        0.0180
     30 C          62.4475   85.4123    7.5758 C.ar    1  UNL1        0.0220
     31 C          61.1449   86.1124    7.3250 C.ar    1  UNL1        0.0990
     32 N          60.3225   86.6027    8.4796 N.ar    1  UNL1       -0.2410
     33 C          60.8028   86.3929    9.8851 C.ar    1  UNL1        0.1136
@<TRIPOS>BOND
     1    16    17    1
     2    17    18    1
     3    17    13    1
     4    13    14    2
     5    13    15    2
     6    13     7    1
     7     7     8   ar
     8     8     9   ar
     9     9    10   ar
    10    10    11   ar
    11    11     1    1
    12     1     2    1
    13     2     3    1
    14     3     4    1
    15     4    19    1
    16    19    20    1
    17    20    21   ar
    18    21    22   ar
    19    22    23   ar
    20    23    26    1
    21    26    27    3
    22    23    24   ar
    23    24    25   ar
    24    19    28    1
    25    28    29   ar
    26    29    30   ar
    27    30    31   ar
    28    31    32   ar
    29    32    33   ar
    30     4     5    1
    31     5     6    1
    32    11    12   ar
    33    12     7   ar
    34     6     1    1
    35    25    20   ar
    36    33    28   ar
@<TRIPOS>MOLECULE
*****
 33 36 0 0 0
SMALL
GASTEIGER

@<TRIPOS>ATOM
      1 N          64.0623   88.6506   14.2107 N.pl3   1  UNL1       -0.3073
      2 C          64.3836   87.3200   14.8241 C.3     1  UNL1        0.0925
      3 C          64.0007   86.0550   14.1146 C.3     1  UNL1        0.0415
      4 C          63.2965   86.1207   12.7918 C.3     1  UNL1        0.0807
      5 C          62.9753   87.4514   12.1785 C.3     1  UNL1        0.0415
      6 C          63.3582   88.7163   12.8879 C.3     1  UNL1        0.0925
      7 C          66.1850   91.7817   15.4110 C.ar    1  UNL1        0.1234
      8 C          65.2112   92.4454   16.3390 C.ar    1  UNL1        0.0200
      9 C          63.8544   91.8442   16.5576 C.ar    1  UNL1        0.0026
     10 C          63.4715   90.5793   15.8482 C.ar    1  UNL1        0.0146
     11 C          64.4453   89.9156   14.9202 C.ar    1  UNL1        0.0492
     12 C          65.8020   90.5168   14.7016 C.ar    1  UNL1        0.0344
     13 S          67.5417   92.3830   15.1924 S.O2    1  UNL1        0.0634
     14 O          67.3293   93.2897   16.3683 O.2     1  UNL1       -0.1528
     15 O          67.7540   91.4762   14.0165 O.2     1  UNL1       -0.1528
     16 C          69.3488   94.1437   15.8120 C.3     1  UNL1        0.1150
     17 N          68.8984   92.9842   14.9738 N.3     1  UNL1       -0.1526
     18 C          69.8048   92.4259   13.9170 C.3     1  UNL1        0.1150
     19 N          62.9136   84.8558   12.0824 N.pl3   1  UNL1       -0.2872
     20 C          62.7336   84.8562   10.5932 C.ar    1  UNL1        0.0516
     21 C          63.6952   84.1045    9.7213 C.ar    1  UNL1        0.0155
     22 C          63.5152   84.1049    8.2321 C.ar    1  UNL1        0.0116
     23 C          62.3736   84.8570    7.6149 C.ar    1  UNL1        0.0685
     24 C          61.4120   85.6087    8.4868 C.ar    1  UNL1        0.0116
     25 C          61.5920   85.6083    9.9759 C.ar    1  UNL1        0.0155
     26 C          62.1936   84.8574    6.1258 C.1     1  UNL1        0.1004
     27 N          62.0136   84.8578    4.6365 N.1     1  UNL1       -0.1908
     28 C          62.7106   83.5905   12.8620 C.ar    1  UNL1        0.0710
     29 C          62.7384   82.2649   12.1608 C.ar    1  UNL1        0.0180
     30 C          62.5354   80.9996   12.9405 C.ar    1  UNL1        0.0220
     31 C          62.3047   81.0600   14.4214 C.ar    1  UNL1        0.0990
     32 N          62.2769   82.3857   15.1226 N.ar    1  UNL1       -0.2410
     33 C          62.4799   83.6510   14.3429 C.ar    1  UNL1        0.1136
@<TRIPOS>BOND
     1    16    17    1
     2    17    18    1
     3    17    13    1
     4    13    14    2
     5    13    15    2
     6    13     7    1
     7     7     8   ar
     8     8     9   ar
     9     9    10   ar
    10    10    11   ar
    11    11     1    1
    12     1     2    1
    13     2     3    1
    14     3     4    1
    15     4    19    1
    16    19    20    1
    17    20    21   ar
    18    21    22   ar
    19    22    23   ar
    20    23    26    1
    21    26    27    3
    22    23    24   ar
    23    24    25   ar
    24    19    28    1
    25    28    29   ar
    26    29    30   ar
    27    30    31   ar
    28    31    32   ar
    29    32    33   ar
    30     4     5    1
    31     5     6    1
    32    11    12   ar
    33    12     7   ar
    34     6     1    1
    35    25    20   ar
    36    33    28   ar
@<TRIPOS>MOLECULE
*****
 33 36 0 0 0
SMALL
GASTEIGER

@<TRIPOS>ATOM
      1 N          63.7577   89.7513   13.5870 N.pl3   1  UNL1       -0.3073
      2 C          63.9334   88.2668   13.7109 C.3     1  UNL1        0.0925
      3 C          63.3380   87.3526   12.6815 C.3     1  UNL1        0.0415
      4 C          62.5669   87.9228   11.5281 C.3     1  UNL1        0.0807
      5 C          62.3912   89.4074   11.4042 C.3     1  UNL1        0.0415
      6 C          62.9866   90.3216   12.4336 C.3     1  UNL1        0.0925
      7 C          66.3421   92.1048   15.4662 C.ar    1  UNL1        0.1234
      8 C          65.5440   92.4941   16.6751 C.ar    1  UNL1        0.0200
      9 C          64.1503   91.9690   16.8546 C.ar    1  UNL1        0.0026
     10 C          63.5549   91.0548   15.8252 C.ar    1  UNL1        0.0146
     11 C          64.3531   90.6656   14.6164 C.ar    1  UNL1        0.0492
     12 C          65.7467   91.1906   14.4369 C.ar    1  UNL1        0.0344
     13 S          67.7357   92.6299   15.2867 S.O2    1  UNL1        0.0634
     14 O          67.9509   91.6713   14.1532 O.2     1  UNL1       -0.1528
     15 O          67.5206   93.5885   16.4202 O.2     1  UNL1       -0.1528
     16 C          70.0515   92.5107   14.1149 C.3     1  UNL1        0.1150
     17 N          69.1293   93.1549   15.1072 N.3     1  UNL1       -0.1526
     18 C          69.6008   94.3241   15.9200 C.3     1  UNL1        0.1150
     19 N          61.9715   87.0087   10.4987 N.pl3   1  UNL1       -0.2872
     20 C          62.3055   85.5464   10.5113 C.ar    1  UNL1        0.0516
     21 C          61.9194   84.6990   11.6873 C.ar    1  UNL1        0.0155
     22 C          62.2535   83.2367   11.6998 C.ar    1  UNL1        0.0116
     23 C          62.9736   82.6218   10.5365 C.ar    1  UNL1        0.0685
     24 C          63.3598   83.4693    9.3606 C.ar    1  UNL1        0.0116
     25 C          63.0257   84.9315    9.3480 C.ar    1  UNL1        0.0155
     26 C          63.3077   81.1596   10.5491 C.1     1  UNL1        0.1004
     27 N          63.6417   79.6973   10.5617 N.1     1  UNL1       -0.1908
     28 C          61.0420   87.5567    9.4567 C.ar    1  UNL1        0.0710
     29 C          60.1683   86.6273    8.6676 C.ar    1  UNL1        0.0180
     30 C          59.2389   87.1754    7.6256 C.ar    1  UNL1        0.0220
     31 C          59.1832   88.6528    7.3727 C.ar    1  UNL1        0.0990
     32 N          60.0569   89.5822    8.1618 N.ar    1  UNL1       -0.2410
     33 C          60.9863   89.0342    9.2038 C.ar    1  UNL1        0.1136
@<TRIPOS>BOND
     1    16    17    1
     2    17    18    1
     3    17    13    1
     4    13    14    2
     5    13    15    2
     6    13     7    1
     7     7     8   ar
     8     8     9   ar
     9     9    10   ar
    10    10    11   ar
    11    11     1    1
    12     1     2    1
    13     2     3    1
    14     3     4    1
    15     4    19    1
    16    19    20    1
    17    20    21   ar
    18    21    22   ar
    19    22    23   ar
    20    23    26    1
    21    26    27    3
    22    23    24   ar
    23    24    25   ar
    24    19    28    1
    25    28    29   ar
    26    29    30   ar
    27    30    31   ar
    28    31    32   ar
    29    32    33   ar
    30     4     5    1
    31     5     6    1
    32    11    12   ar
    33    12     7   ar
    34     6     1    1
    35    25    20   ar
    36    33    28   ar
@<TRIPOS>MOLECULE
*****
 33 36 0 0 0
SMALL
GASTEIGER

@<TRIPOS>ATOM
      1 N          62.9845   90.2823   11.0816 N.pl3   1  UNL1       -0.3073
      2 C          63.4334   91.2412   10.0190 C.3     1  UNL1        0.0925
      3 C          64.5340   92.2188   10.3074 C.3     1  UNL1        0.0415
      4 C          65.1857   92.2374   11.6583 C.3     1  UNL1        0.0807
      5 C          64.7367   91.2785   12.7208 C.3     1  UNL1        0.0415
      6 C          63.6362   90.3010   12.4325 C.3     1  UNL1        0.0925
      7 C          60.9641   87.2873    9.4390 C.ar    1  UNL1        0.1234
      8 C          59.6829   87.3496   10.2165 C.ar    1  UNL1        0.0200
      9 C          59.5021   88.3895   11.2823 C.ar    1  UNL1        0.0026
     10 C          60.6027   89.3670   11.5707 C.ar    1  UNL1        0.0146
     11 C          61.8839   89.3047   10.7932 C.ar    1  UNL1        0.0492
     12 C          62.0646   88.2649    9.7274 C.ar    1  UNL1        0.0344
     13 S          61.1448   86.2474    8.3732 S.O2    1  UNL1        0.0634
     14 O          62.5101   85.9346    8.9098 O.2     1  UNL1       -0.1528
     15 O          59.7795   86.5602    7.8365 O.2     1  UNL1       -0.1528
     16 C          60.1471   84.7464    6.5020 C.3     1  UNL1        0.1150
     17 N          61.3255   85.2076    7.3073 N.3     1  UNL1       -0.1526
     18 C          62.6846   84.6288    7.0469 C.3     1  UNL1        0.1150
     19 N          66.2862   93.2149   11.9466 N.pl3   1  UNL1       -0.2872
     20 C          67.1897   93.0009   13.1247 C.ar    1  UNL1        0.0516
     21 C          68.3508   92.0573   13.0177 C.ar    1  UNL1        0.0155
     22 C          69.2544   91.8433   14.1959 C.ar    1  UNL1        0.0116
     23 C          68.9968   92.5730   15.4808 C.ar    1  UNL1        0.0685
     24 C          67.8357   93.5166   15.5878 C.ar    1  UNL1        0.0116
     25 C          66.9322   93.7306   14.4098 C.ar    1  UNL1        0.0155
     26 C          69.9003   92.3590   16.6589 C.1     1  UNL1        0.1004
     27 N          70.8039   92.1450   17.8370 N.1     1  UNL1       -0.1908
     28 C          66.4832   94.4064   11.0570 C.ar    1  UNL1        0.0710
     29 C          65.7019   95.6631   11.3024 C.ar    1  UNL1        0.0180
     30 C          65.8989   96.8546   10.4127 C.ar    1  UNL1        0.0220
     31 C          66.8773   96.7894    9.2777 C.ar    1  UNL1        0.0990
     32 N          67.6587   95.5328    9.0322 N.ar    1  UNL1       -0.2410
     33 C          67.4616   94.3413    9.9219 C.ar    1  UNL1        0.1136
@<TRIPOS>BOND
     1    16    17    1
     2    17    18    1
     3    17    13    1
     4    13    14    2
     5    13    15    2
     6    13     7    1
     7     7     8   ar
     8     8     9   ar
     9     9    10   ar
    10    10    11   ar
    11    11     1    1
    12     1     2    1
    13     2     3    1
    14     3     4    1
    15     4    19    1
    16    19    20    1
    17    20    21   ar
    18    21    22   ar
    19    22    23   ar
    20    23    26    1
    21    26    27    3
    22    23    24   ar
    23    24    25   ar
    24    19    28    1
    25    28    29   ar
    26    29    30   ar
    27    30    31   ar
    28    31    32   ar
    29    32    33   ar
    30     4     5    1
    31     5     6    1
    32    11    12   ar
    33    12     7   ar
    34     6     1    1
    35    25    20   ar
    36    33    28   ar
@<TRIPOS>MOLECULE
*****
 33 36 0 0 0
SMALL
GASTEIGER

@<TRIPOS>ATOM
      1 N          44.2357   74.2851   17.5821 N.pl3   1  UNL1       -0.3073
      2 C          44.2043   74.8267   18.9805 C.3     1  UNL1        0.0925
      3 C          44.3039   76.3050   19.2147 C.3     1  UNL1        0.0415
      4 C          44.4348   77.2417   18.0505 C.3     1  UNL1        0.0807
      5 C          44.4662   76.7000   16.6520 C.3     1  UNL1        0.0415
      6 C          44.3667   75.2218   16.4178 C.3     1  UNL1        0.0925
      7 C          44.3404   70.7619   15.7585 C.ar    1  UNL1        0.1234
      8 C          43.9371   69.8504   16.8794 C.ar    1  UNL1        0.0200
      9 C          43.6332   70.4172   18.2345 C.ar    1  UNL1        0.0026
     10 C          43.7328   71.8954   18.4688 C.ar    1  UNL1        0.0146
     11 C          44.1361   72.8068   17.3479 C.ar    1  UNL1        0.0492
     12 C          44.4400   72.2401   15.9927 C.ar    1  UNL1        0.0344
     13 S          44.6443   70.1951   14.4033 S.O2    1  UNL1        0.0634
     14 O          43.7294   71.2047   13.7759 O.2     1  UNL1       -0.1528
     15 O          45.5592   69.1855   15.0307 O.2     1  UNL1       -0.1528
     16 C          43.8940   69.6300   11.9810 C.3     1  UNL1        0.1150
     17 N          44.9481   69.6283   13.0481 N.3     1  UNL1       -0.1526
     18 C          46.3060   69.0599   12.7601 C.3     1  UNL1        0.1150
     19 N          44.5344   78.7199   18.2846 N.pl3   1  UNL1       -0.2872
     20 C          44.3956   79.6725   17.1343 C.ar    1  UNL1        0.0516
     21 C          43.9661   79.1664   15.7891 C.ar    1  UNL1        0.0155
     22 C          43.8273   80.1191   14.6387 C.ar    1  UNL1        0.0116
     23 C          44.1180   81.5776   14.8335 C.ar    1  UNL1        0.0685
     24 C          44.5475   82.0837   16.1787 C.ar    1  UNL1        0.0116
     25 C          44.6863   81.1311   17.3291 C.ar    1  UNL1        0.0155
     26 C          43.9792   82.5302   13.6832 C.1     1  UNL1        0.1004
     27 N          43.8404   83.4828   12.5328 N.1     1  UNL1       -0.1908
     28 C          44.7727   79.2456   19.6691 C.ar    1  UNL1        0.0710
     29 C          46.1478   79.1906   20.2659 C.ar    1  UNL1        0.0180
     30 C          46.3861   79.7163   21.6504 C.ar    1  UNL1        0.0220
     31 C          45.2494   80.2970   22.4381 C.ar    1  UNL1        0.0990
     32 N          43.8743   80.3520   21.8414 N.ar    1  UNL1       -0.2410
     33 C          43.6360   79.8263   20.4569 C.ar    1  UNL1        0.1136
@<TRIPOS>BOND
     1    16    17    1
     2    17    18    1
     3    17    13    1
     4    13    14    2
     5    13    15    2
     6    13     7    1
     7     7     8   ar
     8     8     9   ar
     9     9    10   ar
    10    10    11   ar
    11    11     1    1
    12     1     2    1
    13     2     3    1
    14     3     4    1
    15     4    19    1
    16    19    20    1
    17    20    21   ar
    18    21    22   ar
    19    22    23   ar
    20    23    26    1
    21    26    27    3
    22    23    24   ar
    23    24    25   ar
    24    19    28    1
    25    28    29   ar
    26    29    30   ar
    27    30    31   ar
    28    31    32   ar
    29    32    33   ar
    30     4     5    1
    31     5     6    1
    32    11    12   ar
    33    12     7   ar
    34     6     1    1
    35    25    20   ar
    36    33    28   ar
@<TRIPOS>MOLECULE
*****
 33 36 0 0 0
SMALL
GASTEIGER

@<TRIPOS>ATOM
      1 N          61.2850   88.3773   10.3789 N.pl3   1  UNL1       -0.3073
      2 C          61.0807   89.6403   11.1618 C.3     1  UNL1        0.0925
      3 C          61.8549   89.8732   12.4253 C.3     1  UNL1        0.0415
      4 C          62.8334   88.8430   12.9059 C.3     1  UNL1        0.0807
      5 C          63.0378   87.5798   12.1230 C.3     1  UNL1        0.0415
      6 C          62.2636   87.3470   10.8596 C.3     1  UNL1        0.0925
      7 C          59.4085   89.0645    6.9501 C.ar    1  UNL1        0.1234
      8 C          58.9625   87.6788    6.5884 C.ar    1  UNL1        0.0200
      9 C          59.2907   86.5259    7.4902 C.ar    1  UNL1        0.0026
     10 C          60.0648   86.7587    8.7537 C.ar    1  UNL1        0.0146
     11 C          60.5108   88.1444    9.1154 C.ar    1  UNL1        0.0492
     12 C          60.1827   89.2973    8.2136 C.ar    1  UNL1        0.0344
     13 S          59.0804   90.2174    6.0484 S.O2    1  UNL1        0.0634
     14 O          60.5369   90.3835    5.7307 O.2     1  UNL1       -0.1528
     15 O          57.6239   90.0513    6.3660 O.2     1  UNL1       -0.1528
     16 C          57.3207   91.7247    4.8731 C.3     1  UNL1        0.1150
     17 N          58.7523   91.3703    5.1466 N.3     1  UNL1       -0.1526
     18 C          59.8557   92.1688    4.5184 C.3     1  UNL1        0.1150
     19 N          63.6076   89.0758   14.1694 N.pl3   1  UNL1       -0.2872
     20 C          64.4964   90.2776   14.2937 C.ar    1  UNL1        0.0516
     21 C          65.1681   90.8427   13.0773 C.ar    1  UNL1        0.0155
     22 C          66.0570   92.0446   13.2016 C.ar    1  UNL1        0.0116
     23 C          66.2741   92.6814   14.5423 C.ar    1  UNL1        0.0685
     24 C          65.6024   92.1164   15.7586 C.ar    1  UNL1        0.0116
     25 C          64.7136   90.9145   15.6343 C.ar    1  UNL1        0.0155
     26 C          67.1629   93.8833   14.6665 C.1     1  UNL1        0.1004
     27 N          68.0517   95.0852   14.7908 N.1     1  UNL1       -0.1908
     28 C          63.4930   88.1067   15.3086 C.ar    1  UNL1        0.0710
     29 C          62.8378   88.5296   16.5900 C.ar    1  UNL1        0.0180
     30 C          62.7232   87.5606   17.7292 C.ar    1  UNL1        0.0220
     31 C          63.2637   86.1686   17.5870 C.ar    1  UNL1        0.0990
     32 N          63.9188   85.7457   16.3057 N.ar    1  UNL1       -0.2410
     33 C          64.0334   86.7147   15.1665 C.ar    1  UNL1        0.1136
@<TRIPOS>BOND
     1    16    17    1
     2    17    18    1
     3    17    13    1
     4    13    14    2
     5    13    15    2
     6    13     7    1
     7     7     8   ar
     8     8     9   ar
     9     9    10   ar
    10    10    11   ar
    11    11     1    1
    12     1     2    1
    13     2     3    1
    14     3     4    1
    15     4    19    1
    16    19    20    1
    17    20    21   ar
    18    21    22   ar
    19    22    23   ar
    20    23    26    1
    21    26    27    3
    22    23    24   ar
    23    24    25   ar
    24    19    28    1
    25    28    29   ar
    26    29    30   ar
    27    30    31   ar
    28    31    32   ar
    29    32    33   ar
    30     4     5    1
    31     5     6    1
    32    11    12   ar
    33    12     7   ar
    34     6     1    1
    35    25    20   ar
    36    33    28   ar
@<TRIPOS>MOLECULE
*****
 33 36 0 0 0
SMALL
GASTEIGER

@<TRIPOS>ATOM
      1 N          61.3403   88.9976    9.9886 N.pl3   1  UNL1       -0.3073
      2 C          61.3862   90.4024   10.5124 C.3     1  UNL1        0.0925
      3 C          62.2478   90.7343   11.6946 C.3     1  UNL1        0.0415
      4 C          63.0635   89.6613   12.3529 C.3     1  UNL1        0.0807
      5 C          63.0177   88.2565   11.8291 C.3     1  UNL1        0.0415
      6 C          62.1561   87.9246   10.6469 C.3     1  UNL1        0.0925
      7 C          59.2077   89.4143    6.6677 C.ar    1  UNL1        0.1234
      8 C          58.7556   88.0020    6.4421 C.ar    1  UNL1        0.0200
      9 C          59.1651   86.9215    7.3986 C.ar    1  UNL1        0.0026
     10 C          60.0266   87.2534    8.5808 C.ar    1  UNL1        0.0146
     11 C          60.4787   88.6657    8.8064 C.ar    1  UNL1        0.0492
     12 C          60.0692   89.7461    7.8499 C.ar    1  UNL1        0.0344
     13 S          58.7982   90.4947    5.7112 S.O2    1  UNL1        0.0634
     14 O          57.3588   90.2590    6.0612 O.2     1  UNL1       -0.1528
     15 O          60.2376   90.7304    5.3612 O.2     1  UNL1       -0.1528
     16 C          56.9397   91.9308    4.6006 C.3     1  UNL1        0.1150
     17 N          58.3887   91.5752    4.7547 N.3     1  UNL1       -0.1526
     18 C          59.4283   92.3000    3.9523 C.3     1  UNL1        0.1150
     19 N          63.9251   89.9932   13.5351 N.pl3   1  UNL1       -0.2872
     20 C          63.6755   89.3270   14.8556 C.ar    1  UNL1        0.0516
     21 C          63.9382   87.8590   15.0166 C.ar    1  UNL1        0.0155
     22 C          63.6886   87.1928   16.3372 C.ar    1  UNL1        0.0116
     23 C          63.1762   87.9947   17.4968 C.ar    1  UNL1        0.0685
     24 C          62.9135   89.4627   17.3357 C.ar    1  UNL1        0.0116
     25 C          63.1631   90.1288   16.0152 C.ar    1  UNL1        0.0155
     26 C          62.9266   87.3285   18.8173 C.1     1  UNL1        0.1004
     27 N          62.6769   86.6622   20.1379 N.1     1  UNL1       -0.1908
     28 C          65.0363   90.9912   13.3967 C.ar    1  UNL1        0.0710
     29 C          66.1423   91.0274   14.4093 C.ar    1  UNL1        0.0180
     30 C          67.2535   92.0254   14.2709 C.ar    1  UNL1        0.0220
     31 C          67.2587   92.9873   13.1199 C.ar    1  UNL1        0.0990
     32 N          66.1528   92.9511   12.1073 N.ar    1  UNL1       -0.2410
     33 C          65.0415   91.9530   12.2457 C.ar    1  UNL1        0.1136
@<TRIPOS>BOND
     1    16    17    1
     2    17    18    1
     3    17    13    1
     4    13    14    2
     5    13    15    2
     6    13     7    1
     7     7     8   ar
     8     8     9   ar
     9     9    10   ar
    10    10    11   ar
    11    11     1    1
    12     1     2    1
    13     2     3    1
    14     3     4    1
    15     4    19    1
    16    19    20    1
    17    20    21   ar
    18    21    22   ar
    19    22    23   ar
    20    23    26    1
    21    26    27    3
    22    23    24   ar
    23    24    25   ar
    24    19    28    1
    25    28    29   ar
    26    29    30   ar
    27    30    31   ar
    28    31    32   ar
    29    32    33   ar
    30     4     5    1
    31     5     6    1
    32    11    12   ar
    33    12     7   ar
    34     6     1    1
    35    25    20   ar
    36    33    28   ar
@<TRIPOS>MOLECULE
*****
 33 36 0 0 0
SMALL
GASTEIGER

@<TRIPOS>ATOM
      1 N          60.1803   90.8323    5.2873 N.pl3   1  UNL1       -0.3073
      2 C          61.5126   90.8521    4.5983 C.3     1  UNL1        0.0925
      3 C          61.7343   91.7536    3.4201 C.3     1  UNL1        0.0415
      4 C          60.6238   92.6352    2.9308 C.3     1  UNL1        0.0807
      5 C          59.2915   92.6154    3.6198 C.3     1  UNL1        0.0415
      6 C          59.0698   91.7140    4.7980 C.3     1  UNL1        0.0925
      7 C          60.6114   89.1513    8.8564 C.ar    1  UNL1        0.1234
      8 C          59.5152   88.1281    8.8220 C.ar    1  UNL1        0.0200
      9 C          58.6407   88.0062    7.6094 C.ar    1  UNL1        0.0026
     10 C          58.8624   88.9076    6.4312 C.ar    1  UNL1        0.0146
     11 C          59.9586   89.9309    6.4656 C.ar    1  UNL1        0.0492
     12 C          60.8331   90.0527    7.6782 C.ar    1  UNL1        0.0344
     13 S          61.4859   89.2732   10.0690 S.O2    1  UNL1        0.0634
     14 O          62.2455   88.0515    9.6440 O.2     1  UNL1       -0.1528
     15 O          60.7264   90.4948   10.4940 O.2     1  UNL1       -0.1528
     16 C          62.7537   90.7505   11.7895 C.3     1  UNL1        0.1150
     17 N          62.3605   89.3950   11.2816 N.3     1  UNL1       -0.1526
     18 C          62.8418   88.1614   11.9862 C.3     1  UNL1        0.1150
     19 N          60.8455   93.5367    1.7526 N.pl3   1  UNL1       -0.2872
     20 C          59.7228   93.8110    0.7965 C.ar    1  UNL1        0.0516
     21 C          59.3453   95.2253    0.4689 C.ar    1  UNL1        0.0155
     22 C          58.2225   95.4997   -0.4872 C.ar    1  UNL1        0.0116
     23 C          57.4772   94.3597   -1.1157 C.ar    1  UNL1        0.0685
     24 C          57.8547   92.9455   -0.7882 C.ar    1  UNL1        0.0116
     25 C          58.9774   92.6711    0.1679 C.ar    1  UNL1        0.0155
     26 C          56.3545   94.6341   -2.0718 C.1     1  UNL1        0.1004
     27 N          55.2318   94.9085   -3.0280 N.1     1  UNL1       -0.1908
     28 C          62.1899   94.1637    1.5305 C.ar    1  UNL1        0.0710
     29 C          63.3017   93.3596    0.9245 C.ar    1  UNL1        0.0180
     30 C          64.6461   93.9866    0.7024 C.ar    1  UNL1        0.0220
     31 C          64.8787   95.4179    1.0863 C.ar    1  UNL1        0.0990
     32 N          63.7670   96.2220    1.6922 N.ar    1  UNL1       -0.2410
     33 C          62.4226   95.5950    1.9144 C.ar    1  UNL1        0.1136
@<TRIPOS>BOND
     1    16    17    1
     2    17    18    1
     3    17    13    1
     4    13    14    2
     5    13    15    2
     6    13     7    1
     7     7     8   ar
     8     8     9   ar
     9     9    10   ar
    10    10    11   ar
    11    11     1    1
    12     1     2    1
    13     2     3    1
    14     3     4    1
    15     4    19    1
    16    19    20    1
    17    20    21   ar
    18    21    22   ar
    19    22    23   ar
    20    23    26    1
    21    26    27    3
    22    23    24   ar
    23    24    25   ar
    24    19    28    1
    25    28    29   ar
    26    29    30   ar
    27    30    31   ar
    28    31    32   ar
    29    32    33   ar
    30     4     5    1
    31     5     6    1
    32    11    12   ar
    33    12     7   ar
    34     6     1    1
    35    25    20   ar
    36    33    28   ar
@<TRIPOS>MOLECULE
*****
 33 36 0 0 0
SMALL
GASTEIGER

@<TRIPOS>ATOM
      1 N          60.3021   89.2997    7.9429 N.pl3   1  UNL1       -0.3073
      2 C          61.1897   90.1017    8.8479 C.3     1  UNL1        0.0925
      3 C          61.9077   89.4309    9.9813 C.3     1  UNL1        0.0415
      4 C          61.7381   87.9581   10.2096 C.3     1  UNL1        0.0807
      5 C          60.8504   87.1561    9.3046 C.3     1  UNL1        0.0415
      6 C          60.1325   87.8270    8.1713 C.3     1  UNL1        0.0925
      7 C          59.6409   91.4132    4.6495 C.ar    1  UNL1        0.1234
      8 C          58.1482   91.3122    4.5428 C.ar    1  UNL1        0.0200
      9 C          57.3734   90.5404    5.5695 C.ar    1  UNL1        0.0026
     10 C          58.0913   89.8696    6.7028 C.ar    1  UNL1        0.0146
     11 C          59.5841   89.9706    6.8095 C.ar    1  UNL1        0.0492
     12 C          60.3589   90.7424    5.7829 C.ar    1  UNL1        0.0344
     13 S          60.4157   92.1850    3.6229 S.O2    1  UNL1        0.0634
     14 O          59.1357   92.7475    3.0797 O.2     1  UNL1       -0.1528
     15 O          61.6958   91.6224    4.1661 O.2     1  UNL1       -0.1528
     16 C          62.5449   92.4791    2.1635 C.3     1  UNL1        0.1150
     17 N          61.1905   92.9568    2.5963 N.3     1  UNL1       -0.1526
     18 C          60.6110   94.2063    2.0024 C.3     1  UNL1        0.1150
     19 N          62.4561   87.2873   11.3430 N.pl3   1  UNL1       -0.2872
     20 C          62.5710   85.7921   11.3777 C.ar    1  UNL1        0.0516
     21 C          62.9763   85.0422   10.1435 C.ar    1  UNL1        0.0155
     22 C          63.0913   83.5469   10.1783 C.ar    1  UNL1        0.0116
     23 C          62.8009   82.8017   11.4472 C.ar    1  UNL1        0.0685
     24 C          62.3956   83.5517   12.6815 C.ar    1  UNL1        0.0116
     25 C          62.2807   85.0468   12.6467 C.ar    1  UNL1        0.0155
     26 C          62.9159   81.3066   11.4820 C.1     1  UNL1        0.1004
     27 N          63.0308   79.8113   11.5168 N.1     1  UNL1       -0.1908
     28 C          63.0591   88.1116   12.4415 C.ar    1  UNL1        0.0710
     29 C          63.8511   87.4480   13.5288 C.ar    1  UNL1        0.0180
     30 C          64.4541   88.2723   14.6274 C.ar    1  UNL1        0.0220
     31 C          64.2651   89.7602   14.6387 C.ar    1  UNL1        0.0990
     32 N          63.4730   90.4239   13.5514 N.ar    1  UNL1       -0.2410
     33 C          62.8700   89.5996   12.4529 C.ar    1  UNL1        0.1136
@<TRIPOS>BOND
     1    16    17    1
     2    17    18    1
     3    17    13    1
     4    13    14    2
     5    13    15    2
     6    13     7    1
     7     7     8   ar
     8     8     9   ar
     9     9    10   ar
    10    10    11   ar
    11    11     1    1
    12     1     2    1
    13     2     3    1
    14     3     4    1
    15     4    19    1
    16    19    20    1
    17    20    21   ar
    18    21    22   ar
    19    22    23   ar
    20    23    26    1
    21    26    27    3
    22    23    24   ar
    23    24    25   ar
    24    19    28    1
    25    28    29   ar
    26    29    30   ar
    27    30    31   ar
    28    31    32   ar
    29    32    33   ar
    30     4     5    1
    31     5     6    1
    32    11    12   ar
    33    12     7   ar
    34     6     1    1
    35    25    20   ar
    36    33    28   ar
