@<TRIPOS>MOLECULE
*****
 29 32 0 0 0
SMALL
GASTEIGER

@<TRIPOS>ATOM
      1 N          62.4265   87.2566   11.4084 N.ar    1  UNL1       -0.3028
      2 C          62.7541   85.8191   11.6843 C.ar    1  UNL1        0.0833
      3 C          63.5823   85.7640   12.9337 C.ar    1  UNL1        0.0580
      4 C          63.7665   87.1675   13.4300 C.ar    1  UNL1        0.0229
      5 C          64.4924   87.7246   14.6185 C.ar    1  UNL1        0.0017
      6 C          64.5040   89.2042   14.8644 C.ar    1  UNL1        0.0024
      7 C          63.7896   90.1267   13.9217 C.ar    1  UNL1        0.0311
      8 C          63.0637   89.5696   12.7332 C.ar    1  UNL1        0.1561
      9 F          62.3493   90.4921   11.7905 F       1  UNL1       -0.2026
     10 C          63.0521   88.0900   12.4873 C.ar    1  UNL1        0.0917
     11 C          59.9935   88.7987    7.9511 C.ar    1  UNL1        0.0141
     12 C          60.2131   87.3240    8.1150 C.ar    1  UNL1        0.0026
     13 C          61.0241   86.8100    9.2675 C.ar    1  UNL1        0.0176
     14 C          61.6155   87.7706   10.2560 C.ar    1  UNL1        0.0641
     15 C          61.3959   89.2455   10.0921 C.ar    1  UNL1        0.0176
     16 C          60.5849   89.7595    8.9396 C.ar    1  UNL1        0.0026
     17 O          57.7094   89.0371    6.7363 O.co2   1  UNL1       -0.5446
     18 C          59.1825   89.3127    6.7987 C.2     1  UNL1        0.0729
     19 O          59.8447   90.1023    5.7087 O.co2   1  UNL1       -0.5446
     20 C          64.1302   84.5232   13.5743 C.2     1  UNL1        0.1987
     21 O          65.4265   84.5774   14.3269 O.2     1  UNL1       -0.2865
     22 C          63.3815   83.2281   13.4624 C.ar    1  UNL1        0.0601
     23 C          63.6150   82.3261   12.2869 C.ar    1  UNL1        0.0615
     24 CL         64.5971   82.7191   11.2234 Cl      1  UNL1       -0.0821
     25 C          62.8665   81.0311   12.1749 C.ar    1  UNL1        0.0115
     26 C          61.8845   80.6381   13.2384 C.ar    1  UNL1        0.0017
     27 C          61.6510   81.5401   14.4139 C.ar    1  UNL1        0.0115
     28 C          62.3995   82.8352   14.5259 C.ar    1  UNL1        0.0615
     29 CL         62.1660   83.7372   15.7014 Cl      1  UNL1       -0.0821
@<TRIPOS>UNITY_ATOM_ATTR
17 1
charge -1
@<TRIPOS>BOND
     1    17    18   ar
     2    18    19   ar
     3    18    11    1
     4    11    12   ar
     5    12    13   ar
     6    13    14   ar
     7    14     1    1
     8     1     2   ar
     9     2     3   ar
    10     3    20    1
    11    20    21    2
    12    20    22    1
    13    22    23   ar
    14    23    24    1
    15    23    25   ar
    16    25    26   ar
    17    26    27   ar
    18    27    28   ar
    19    28    29    1
    20     3     4   ar
    21     4     5   ar
    22     5     6   ar
    23     6     7   ar
    24     7     8   ar
    25     8     9    1
    26     8    10   ar
    27    14    15   ar
    28    15    16   ar
    29    16    11   ar
    30    10     1   ar
    31    28    22   ar
    32    10     4   ar
@<TRIPOS>MOLECULE
*****
 29 32 0 0 0
SMALL
GASTEIGER

@<TRIPOS>ATOM
      1 N          62.4270   87.2546   11.4080 N.ar    1  UNL1       -0.3028
      2 C          62.7543   85.8170   11.6838 C.ar    1  UNL1        0.0833
      3 C          63.5826   85.7617   12.9332 C.ar    1  UNL1        0.0580
      4 C          63.7671   87.1651   13.4295 C.ar    1  UNL1        0.0229
      5 C          64.4932   87.7220   14.6180 C.ar    1  UNL1        0.0017
      6 C          64.5052   89.2017   14.8639 C.ar    1  UNL1        0.0024
      7 C          63.7910   90.1244   13.9213 C.ar    1  UNL1        0.0311
      8 C          63.0649   89.5674   12.7328 C.ar    1  UNL1        0.1561
      9 F          62.3507   90.4901   11.7901 F       1  UNL1       -0.2026
     10 C          63.0529   88.0878   12.4869 C.ar    1  UNL1        0.0917
     11 C          59.9942   88.7972    7.9508 C.ar    1  UNL1        0.0141
     12 C          60.5788   89.7572    8.9441 C.ar    1  UNL1        0.0026
     13 C          61.3897   89.2430   10.0965 C.ar    1  UNL1        0.0176
     14 C          61.6161   87.7688   10.2556 C.ar    1  UNL1        0.0641
     15 C          61.0315   86.8087    9.2623 C.ar    1  UNL1        0.0176
     16 C          60.2206   87.3229    8.1099 C.ar    1  UNL1        0.0026
     17 O          57.7101   89.0364    6.7362 O.co2   1  UNL1       -0.5446
     18 C          59.1833   89.3114    6.7984 C.2     1  UNL1        0.0729
     19 O          59.8457   90.1006    5.7082 O.co2   1  UNL1       -0.5446
     20 C          64.1301   84.5208   13.5738 C.2     1  UNL1        0.1987
     21 O          65.4266   84.5746   14.3261 O.2     1  UNL1       -0.2865
     22 C          63.3811   83.2259   13.4621 C.ar    1  UNL1        0.0601
     23 C          62.3982   82.8339   14.5253 C.ar    1  UNL1        0.0615
     24 CL         62.1645   83.7367   15.7002 Cl      1  UNL1       -0.0821
     25 C          61.6492   81.5391   14.4136 C.ar    1  UNL1        0.0115
     26 C          61.8830   80.6364   13.2387 C.ar    1  UNL1        0.0017
     27 C          62.8658   81.0284   12.1756 C.ar    1  UNL1        0.0115
     28 C          63.6149   82.3232   12.2872 C.ar    1  UNL1        0.0615
     29 CL         64.5977   82.7152   11.2240 Cl      1  UNL1       -0.0821
@<TRIPOS>UNITY_ATOM_ATTR
17 1
charge -1
@<TRIPOS>BOND
     1    17    18   ar
     2    18    19   ar
     3    18    11    1
     4    11    12   ar
     5    12    13   ar
     6    13    14   ar
     7    14     1    1
     8     1     2   ar
     9     2     3   ar
    10     3    20    1
    11    20    21    2
    12    20    22    1
    13    22    23   ar
    14    23    24    1
    15    23    25   ar
    16    25    26   ar
    17    26    27   ar
    18    27    28   ar
    19    28    29    1
    20     3     4   ar
    21     4     5   ar
    22     5     6   ar
    23     6     7   ar
    24     7     8   ar
    25     8     9    1
    26     8    10   ar
    27    14    15   ar
    28    15    16   ar
    29    16    11   ar
    30    10     1   ar
    31    28    22   ar
    32    10     4   ar
@<TRIPOS>MOLECULE
*****
 29 32 0 0 0
SMALL
GASTEIGER

@<TRIPOS>ATOM
      1 N          63.6188   90.9460   11.5299 N.ar    1  UNL1       -0.3028
      2 C          64.5853   91.9502   10.9754 C.ar    1  UNL1        0.0833
      3 C          65.3693   92.5200   12.1202 C.ar    1  UNL1        0.0580
      4 C          64.8874   91.8680   13.3822 C.ar    1  UNL1        0.0229
      5 C          65.2940   92.0345   14.8164 C.ar    1  UNL1        0.0017
      6 C          64.6186   91.2281   15.8858 C.ar    1  UNL1        0.0024
      7 C          63.5367   90.2553   15.5210 C.ar    1  UNL1        0.0311
      8 C          63.1301   90.0889   14.0868 C.ar    1  UNL1        0.1561
      9 F          62.0482   89.1161   13.7220 F       1  UNL1       -0.2026
     10 C          63.8055   90.8952   13.0174 C.ar    1  UNL1        0.0917
     11 C          60.6756   88.5130    9.1491 C.ar    1  UNL1        0.0141
     12 C          61.9808   87.9071    9.5724 C.ar    1  UNL1        0.0026
     13 C          62.9618   88.7181   10.3660 C.ar    1  UNL1        0.0176
     14 C          62.6377   90.1350   10.7363 C.ar    1  UNL1        0.0641
     15 C          61.3324   90.7410   10.3130 C.ar    1  UNL1        0.0176
     16 C          60.3514   89.9299    9.5194 C.ar    1  UNL1        0.0026
     17 O          58.7117   88.3870    7.4529 O.co2   1  UNL1       -0.5446
     18 C          59.6945   87.7019    8.3555 C.2     1  UNL1        0.0729
     19 O          59.6964   86.2059    8.4645 O.co2   1  UNL1       -0.5446
     20 C          66.4463   93.5594   12.0205 C.2     1  UNL1        0.1987
     21 O          67.2036   93.9747   13.2467 O.2     1  UNL1       -0.2865
     22 C          66.7659   94.1834   10.6943 C.ar    1  UNL1        0.0601
     23 C          67.5440   93.4114    9.6703 C.ar    1  UNL1        0.0615
     24 CL         68.0024   92.0155    9.9723 Cl      1  UNL1       -0.0821
     25 C          67.8636   94.0353    8.3442 C.ar    1  UNL1        0.0115
     26 C          67.4052   95.4313    8.0422 C.ar    1  UNL1        0.0017
     27 C          66.6272   96.2032    9.0663 C.ar    1  UNL1        0.0115
     28 C          66.3075   95.5793   10.3923 C.ar    1  UNL1        0.0615
     29 CL         65.5295   96.3513   11.4164 Cl      1  UNL1       -0.0821
@<TRIPOS>UNITY_ATOM_ATTR
17 1
charge -1
@<TRIPOS>BOND
     1    17    18   ar
     2    18    19   ar
     3    18    11    1
     4    11    12   ar
     5    12    13   ar
     6    13    14   ar
     7    14     1    1
     8     1     2   ar
     9     2     3   ar
    10     3    20    1
    11    20    21    2
    12    20    22    1
    13    22    23   ar
    14    23    24    1
    15    23    25   ar
    16    25    26   ar
    17    26    27   ar
    18    27    28   ar
    19    28    29    1
    20     3     4   ar
    21     4     5   ar
    22     5     6   ar
    23     6     7   ar
    24     7     8   ar
    25     8     9    1
    26     8    10   ar
    27    14    15   ar
    28    15    16   ar
    29    16    11   ar
    30    10     1   ar
    31    28    22   ar
    32    10     4   ar
@<TRIPOS>MOLECULE
*****
 29 32 0 0 0
SMALL
GASTEIGER

@<TRIPOS>ATOM
      1 N          63.6449   90.9761   11.5773 N.ar    1  UNL1       -0.3028
      2 C          64.6032   91.9879   11.0224 C.ar    1  UNL1        0.0833
      3 C          65.3883   92.5587   12.1661 C.ar    1  UNL1        0.0580
      4 C          64.9152   91.8996   13.4278 C.ar    1  UNL1        0.0229
      5 C          65.3263   92.0638   14.8609 C.ar    1  UNL1        0.0017
      6 C          64.6599   91.2498   15.9302 C.ar    1  UNL1        0.0024
      7 C          63.5825   90.2717   15.5663 C.ar    1  UNL1        0.0311
      8 C          63.1713   90.1076   14.1332 C.ar    1  UNL1        0.1561
      9 F          62.0939   89.1295   13.7693 F       1  UNL1       -0.2026
     10 C          63.8377   90.9215   13.0639 C.ar    1  UNL1        0.0917
     11 C          60.7073   88.5332    9.1998 C.ar    1  UNL1        0.0141
     12 C          60.3790   89.9492    9.5699 C.ar    1  UNL1        0.0026
     13 C          61.3583   90.7635   10.3624 C.ar    1  UNL1        0.0176
     14 C          62.6657   90.1619   10.7848 C.ar    1  UNL1        0.0641
     15 C          62.9940   88.7457   10.4147 C.ar    1  UNL1        0.0176
     16 C          62.0148   87.9314    9.6221 C.ar    1  UNL1        0.0026
     17 O          59.7330   86.2231    8.5187 O.co2   1  UNL1       -0.5446
     18 C          59.7281   87.7189    8.4072 C.2     1  UNL1        0.0729
     19 O          58.7440   88.4004    7.5034 O.co2   1  UNL1       -0.5446
     20 C          66.4585   93.6048   12.0657 C.2     1  UNL1        0.1987
     21 O          67.2052   94.0342   13.2937 O.2     1  UNL1       -0.2865
     22 C          66.7822   94.2217   10.7371 C.ar    1  UNL1        0.0601
     23 C          66.3573   95.6293   10.4404 C.ar    1  UNL1        0.0615
     24 CL         65.6088   96.4201   11.4721 Cl      1  UNL1       -0.0821
     25 C          66.6809   96.2461    9.1120 C.ar    1  UNL1        0.0115
     26 C          67.4294   95.4553    8.0803 C.ar    1  UNL1        0.0017
     27 C          67.8542   94.0477    8.3771 C.ar    1  UNL1        0.0115
     28 C          67.5306   93.4308    9.7055 C.ar    1  UNL1        0.0615
     29 CL         67.9555   92.0232   10.0022 Cl      1  UNL1       -0.0821
@<TRIPOS>UNITY_ATOM_ATTR
17 1
charge -1
@<TRIPOS>BOND
     1    17    18   ar
     2    18    19   ar
     3    18    11    1
     4    11    12   ar
     5    12    13   ar
     6    13    14   ar
     7    14     1    1
     8     1     2   ar
     9     2     3   ar
    10     3    20    1
    11    20    21    2
    12    20    22    1
    13    22    23   ar
    14    23    24    1
    15    23    25   ar
    16    25    26   ar
    17    26    27   ar
    18    27    28   ar
    19    28    29    1
    20     3     4   ar
    21     4     5   ar
    22     5     6   ar
    23     6     7   ar
    24     7     8   ar
    25     8     9    1
    26     8    10   ar
    27    14    15   ar
    28    15    16   ar
    29    16    11   ar
    30    10     1   ar
    31    28    22   ar
    32    10     4   ar
@<TRIPOS>MOLECULE
*****
 29 32 0 0 0
SMALL
GASTEIGER

@<TRIPOS>ATOM
      1 N          62.8480   87.0431   12.1930 N.ar    1  UNL1       -0.3028
      2 C          63.5855   88.0775   12.9907 C.ar    1  UNL1        0.0833
      3 C          63.1682   89.4300   12.4942 C.ar    1  UNL1        0.0580
      4 C          62.1728   89.2316   11.3897 C.ar    1  UNL1        0.0229
      5 C          61.4210   90.2036   10.5295 C.ar    1  UNL1        0.0017
      6 C          60.4714   89.7003    9.4831 C.ar    1  UNL1        0.0024
      7 C          60.2735   88.2251    9.2970 C.ar    1  UNL1        0.0311
      8 C          61.0253   87.2532   10.1573 C.ar    1  UNL1        0.1561
      9 F          60.8274   85.7780    9.9711 F       1  UNL1       -0.2026
     10 C          61.9749   87.7564   11.2036 C.ar    1  UNL1        0.0917
     11 C          63.1940   82.5832   12.6825 C.ar    1  UNL1        0.0141
     12 C          63.3109   83.1995   11.3200 C.ar    1  UNL1        0.0026
     13 C          63.1956   84.6861   11.1569 C.ar    1  UNL1        0.0176
     14 C          62.9634   85.5565   12.3562 C.ar    1  UNL1        0.0641
     15 C          62.8465   84.9402   13.7188 C.ar    1  UNL1        0.0176
     16 C          62.9618   83.4535   13.8819 C.ar    1  UNL1        0.0026
     17 O          63.8732   80.5225   14.1116 O.co2   1  UNL1       -0.5446
     18 C          63.3094   81.0965   12.8457 C.2     1  UNL1        0.0729
     19 O          62.8609   80.1840   11.7429 O.co2   1  UNL1       -0.5446
     20 C          63.6600   90.7494   13.0113 C.2     1  UNL1        0.1987
     21 O          62.9446   91.4250   14.1434 O.2     1  UNL1       -0.2865
     22 C          64.8673   91.3932   12.3964 C.ar    1  UNL1        0.0601
     23 C          66.1453   91.4886   13.1758 C.ar    1  UNL1        0.0615
     24 CL         66.2160   90.9402   14.5702 Cl      1  UNL1       -0.0821
     25 C          67.3525   92.1323   12.5609 C.ar    1  UNL1        0.0115
     26 C          67.2817   92.6806   11.1665 C.ar    1  UNL1        0.0017
     27 C          66.0037   92.5852   10.3871 C.ar    1  UNL1        0.0115
     28 C          64.7965   91.9415   11.0020 C.ar    1  UNL1        0.0615
     29 CL         63.5184   91.8460   10.2225 Cl      1  UNL1       -0.0821
@<TRIPOS>UNITY_ATOM_ATTR
17 1
charge -1
@<TRIPOS>BOND
     1    17    18   ar
     2    18    19   ar
     3    18    11    1
     4    11    12   ar
     5    12    13   ar
     6    13    14   ar
     7    14     1    1
     8     1     2   ar
     9     2     3   ar
    10     3    20    1
    11    20    21    2
    12    20    22    1
    13    22    23   ar
    14    23    24    1
    15    23    25   ar
    16    25    26   ar
    17    26    27   ar
    18    27    28   ar
    19    28    29    1
    20     3     4   ar
    21     4     5   ar
    22     5     6   ar
    23     6     7   ar
    24     7     8   ar
    25     8     9    1
    26     8    10   ar
    27    14    15   ar
    28    15    16   ar
    29    16    11   ar
    30    10     1   ar
    31    28    22   ar
    32    10     4   ar
@<TRIPOS>MOLECULE
*****
 29 32 0 0 0
SMALL
GASTEIGER

@<TRIPOS>ATOM
      1 N          62.8480   87.0485   12.1988 N.ar    1  UNL1       -0.3028
      2 C          63.5880   88.0811   12.9964 C.ar    1  UNL1        0.0833
      3 C          63.1728   89.4347   12.5008 C.ar    1  UNL1        0.0580
      4 C          62.1763   89.2386   11.3969 C.ar    1  UNL1        0.0229
      5 C          61.4258   90.2124   10.5377 C.ar    1  UNL1        0.0017
      6 C          60.4746   89.7115    9.4917 C.ar    1  UNL1        0.0024
      7 C          60.2738   88.2367    9.3050 C.ar    1  UNL1        0.0311
      8 C          61.0243   87.2629   10.1643 C.ar    1  UNL1        0.1561
      9 F          60.8236   85.7882    9.9776 F       1  UNL1       -0.2026
     10 C          61.9756   87.7639   11.2103 C.ar    1  UNL1        0.0917
     11 C          63.1860   82.5877   12.6859 C.ar    1  UNL1        0.0141
     12 C          63.3095   83.2050   11.3244 C.ar    1  UNL1        0.0026
     13 C          63.1968   84.6919   11.1621 C.ar    1  UNL1        0.0176
     14 C          62.9607   85.5616   12.3611 C.ar    1  UNL1        0.0641
     15 C          62.8372   84.9443   13.7227 C.ar    1  UNL1        0.0176
     16 C          62.9499   83.4574   13.8851 C.ar    1  UNL1        0.0026
     17 O          63.8487   80.5247   14.1193 O.co2   1  UNL1       -0.5446
     18 C          63.2987   81.1008   12.8483 C.2     1  UNL1        0.0729
     19 O          62.8614   80.1900   11.7396 O.co2   1  UNL1       -0.5446
     20 C          63.6674   90.7529   13.0183 C.2     1  UNL1        0.1987
     21 O          62.9548   91.4286   14.1521 O.2     1  UNL1       -0.2865
     22 C          64.8746   91.3954   12.4019 C.ar    1  UNL1        0.0601
     23 C          64.8037   91.9407   11.0063 C.ar    1  UNL1        0.0615
     24 CL         63.5256   91.8435   10.2272 Cl      1  UNL1       -0.0821
     25 C          66.0108   92.5832   10.3899 C.ar    1  UNL1        0.0115
     26 C          67.2889   92.6804   11.1691 C.ar    1  UNL1        0.0017
     27 C          67.3598   92.1351   12.5647 C.ar    1  UNL1        0.0115
     28 C          66.1527   91.4926   13.1811 C.ar    1  UNL1        0.0615
     29 CL         66.2235   90.9473   14.5767 Cl      1  UNL1       -0.0821
@<TRIPOS>UNITY_ATOM_ATTR
17 1
charge -1
@<TRIPOS>BOND
     1    17    18   ar
     2    18    19   ar
     3    18    11    1
     4    11    12   ar
     5    12    13   ar
     6    13    14   ar
     7    14     1    1
     8     1     2   ar
     9     2     3   ar
    10     3    20    1
    11    20    21    2
    12    20    22    1
    13    22    23   ar
    14    23    24    1
    15    23    25   ar
    16    25    26   ar
    17    26    27   ar
    18    27    28   ar
    19    28    29    1
    20     3     4   ar
    21     4     5   ar
    22     5     6   ar
    23     6     7   ar
    24     7     8   ar
    25     8     9    1
    26     8    10   ar
    27    14    15   ar
    28    15    16   ar
    29    16    11   ar
    30    10     1   ar
    31    28    22   ar
    32    10     4   ar
@<TRIPOS>MOLECULE
*****
 29 32 0 0 0
SMALL
GASTEIGER

@<TRIPOS>ATOM
      1 N          62.5307   86.9267   11.3505 N.ar    1  UNL1       -0.3028
      2 C          63.2580   88.1061   11.9250 C.ar    1  UNL1        0.0833
      3 C          62.7778   89.3373   11.2153 C.ar    1  UNL1        0.0580
      4 C          61.7538   88.9187   10.2022 C.ar    1  UNL1        0.0229
      5 C          60.9407   89.7018    9.2144 C.ar    1  UNL1        0.0017
      6 C          59.9750   88.9949    8.3102 C.ar    1  UNL1        0.0024
      7 C          59.8223   87.5051    8.3938 C.ar    1  UNL1        0.0311
      8 C          60.6354   86.7220    9.3816 C.ar    1  UNL1        0.1561
      9 F          60.4827   85.2322    9.4651 F       1  UNL1       -0.2026
     10 C          61.6011   87.4289   10.2858 C.ar    1  UNL1        0.0917
     11 C          63.0471   82.6350   12.6016 C.ar    1  UNL1        0.0141
     12 C          63.2476   83.0276   11.1679 C.ar    1  UNL1        0.0026
     13 C          63.0755   84.4581   10.7509 C.ar    1  UNL1        0.0176
     14 C          62.7029   85.4961   11.7675 C.ar    1  UNL1        0.0641
     15 C          62.5024   85.1035   13.2013 C.ar    1  UNL1        0.0176
     16 C          62.6745   83.6730   13.6184 C.ar    1  UNL1        0.0026
     17 O          63.8827   80.8784   14.3238 O.co2   1  UNL1       -0.5446
     18 C          63.2193   81.2044   13.0186 C.2     1  UNL1        0.0729
     19 O          62.7279   80.1000   12.1305 O.co2   1  UNL1       -0.5446
     20 C          63.2404   90.7406   11.4733 C.2     1  UNL1        0.1987
     21 O          62.8795   91.8373   10.5158 O.2     1  UNL1       -0.2865
     22 C          64.0639   91.0473   12.6890 C.ar    1  UNL1        0.0601
     23 C          65.3546   91.7989   12.5505 C.ar    1  UNL1        0.0615
     24 CL         65.8218   92.2438   11.1963 Cl      1  UNL1       -0.0821
     25 C          66.1782   92.1055   13.7661 C.ar    1  UNL1        0.0115
     26 C          65.7109   91.6606   15.1203 C.ar    1  UNL1        0.0017
     27 C          64.4202   90.9091   15.2588 C.ar    1  UNL1        0.0115
     28 C          63.5967   90.6024   14.0432 C.ar    1  UNL1        0.0615
     29 CL         62.3060   89.8508   14.1817 Cl      1  UNL1       -0.0821
@<TRIPOS>UNITY_ATOM_ATTR
17 1
charge -1
@<TRIPOS>BOND
     1    17    18   ar
     2    18    19   ar
     3    18    11    1
     4    11    12   ar
     5    12    13   ar
     6    13    14   ar
     7    14     1    1
     8     1     2   ar
     9     2     3   ar
    10     3    20    1
    11    20    21    2
    12    20    22    1
    13    22    23   ar
    14    23    24    1
    15    23    25   ar
    16    25    26   ar
    17    26    27   ar
    18    27    28   ar
    19    28    29    1
    20     3     4   ar
    21     4     5   ar
    22     5     6   ar
    23     6     7   ar
    24     7     8   ar
    25     8     9    1
    26     8    10   ar
    27    14    15   ar
    28    15    16   ar
    29    16    11   ar
    30    10     1   ar
    31    28    22   ar
    32    10     4   ar
@<TRIPOS>MOLECULE
*****
 29 32 0 0 0
SMALL
GASTEIGER

@<TRIPOS>ATOM
      1 N          62.7444   86.9173   10.8908 N.ar    1  UNL1       -0.3028
      2 C          62.7289   88.3947   11.1498 C.ar    1  UNL1        0.0833
      3 C          63.1684   88.6216   12.5659 C.ar    1  UNL1        0.0580
      4 C          63.4555   87.2845   13.1821 C.ar    1  UNL1        0.0229
      5 C          63.9217   86.8900   14.5521 C.ar    1  UNL1        0.0017
      6 C          64.1258   85.4421   14.8868 C.ar    1  UNL1        0.0024
      7 C          63.8638   84.3888   13.8515 C.ar    1  UNL1        0.0311
      8 C          63.3976   84.7833   12.4815 C.ar    1  UNL1        0.1561
      9 F          63.1355   83.7300   11.4462 F       1  UNL1       -0.2026
     10 C          63.1934   86.2312   12.1468 C.ar    1  UNL1        0.0917
     11 C          61.6378   84.8981    7.0245 C.ar    1  UNL1        0.0141
     12 C          63.0161   84.7286    7.5915 C.ar    1  UNL1        0.0026
     13 C          63.3849   85.4016    8.8803 C.ar    1  UNL1        0.0176
     14 C          62.3755   86.2443    9.6021 C.ar    1  UNL1        0.0641
     15 C          60.9971   86.4138    9.0350 C.ar    1  UNL1        0.0176
     16 C          60.6283   85.7408    7.7462 C.ar    1  UNL1        0.0026
     17 O          60.1538   83.2223    5.7057 O.co2   1  UNL1       -0.5446
     18 C          61.2689   84.2250    5.7357 C.2     1  UNL1        0.0729
     19 O          62.0152   84.5547    4.4770 O.co2   1  UNL1       -0.5446
     20 C          63.2980   89.9521   13.2465 C.2     1  UNL1        0.1987
     21 O          62.4593   90.2637   14.4503 O.2     1  UNL1       -0.2865
     22 C          64.2666   90.9710   12.7231 C.ar    1  UNL1        0.0601
     23 C          65.4703   91.3480   13.5348 C.ar    1  UNL1        0.0615
     24 CL         65.7054   90.7060   14.8700 Cl      1  UNL1       -0.0821
     25 C          66.4388   92.3668   13.0115 C.ar    1  UNL1        0.0115
     26 C          66.2035   93.0087   11.6764 C.ar    1  UNL1        0.0017
     27 C          64.9998   92.6318   10.8646 C.ar    1  UNL1        0.0115
     28 C          64.0313   91.6129   11.3879 C.ar    1  UNL1        0.0615
     29 CL         62.8276   91.2359   10.5761 Cl      1  UNL1       -0.0821
@<TRIPOS>UNITY_ATOM_ATTR
17 1
charge -1
@<TRIPOS>BOND
     1    17    18   ar
     2    18    19   ar
     3    18    11    1
     4    11    12   ar
     5    12    13   ar
     6    13    14   ar
     7    14     1    1
     8     1     2   ar
     9     2     3   ar
    10     3    20    1
    11    20    21    2
    12    20    22    1
    13    22    23   ar
    14    23    24    1
    15    23    25   ar
    16    25    26   ar
    17    26    27   ar
    18    27    28   ar
    19    28    29    1
    20     3     4   ar
    21     4     5   ar
    22     5     6   ar
    23     6     7   ar
    24     7     8   ar
    25     8     9    1
    26     8    10   ar
    27    14    15   ar
    28    15    16   ar
    29    16    11   ar
    30    10     1   ar
    31    28    22   ar
    32    10     4   ar
@<TRIPOS>MOLECULE
*****
 29 32 0 0 0
SMALL
GASTEIGER

@<TRIPOS>ATOM
      1 N          63.4125   87.4075   13.0063 N.ar    1  UNL1       -0.3028
      2 C          64.0458   86.0564   13.1599 C.ar    1  UNL1        0.0833
      3 C          63.4827   85.1574   12.0994 C.ar    1  UNL1        0.0580
      4 C          62.5015   85.9528   11.2904 C.ar    1  UNL1        0.0229
      5 C          61.6419   85.5904   10.1157 C.ar    1  UNL1        0.0017
      6 C          60.7390   86.6187    9.5016 C.ar    1  UNL1        0.0024
      7 C          60.6956   88.0094   10.0621 C.ar    1  UNL1        0.0311
      8 C          61.5551   88.3718   11.2368 C.ar    1  UNL1        0.1561
      9 F          61.5117   89.7624   11.7973 F       1  UNL1       -0.2026
     10 C          62.4581   87.3435   11.8509 C.ar    1  UNL1        0.0917
     11 C          64.2320   91.0189   15.5630 C.ar    1  UNL1        0.0141
     12 C          64.5383   91.0540   14.0951 C.ar    1  UNL1        0.0026
     13 C          64.2651   89.8502   13.2429 C.ar    1  UNL1        0.0176
     14 C          63.6857   88.6113   13.8585 C.ar    1  UNL1        0.0641
     15 C          63.3793   88.5761   15.3266 C.ar    1  UNL1        0.0176
     16 C          63.6525   89.7799   16.1788 C.ar    1  UNL1        0.0026
     17 O          65.9165   92.6788   16.6384 O.co2   1  UNL1       -0.5446
     18 C          64.5051   92.2227   16.4152 C.2     1  UNL1        0.0729
     19 O          63.3669   92.9703   17.0442 O.co2   1  UNL1       -0.5446
     20 C          63.8385   83.7160   11.8854 C.2     1  UNL1        0.1987
     21 O          64.9788   83.3510   10.9821 O.2     1  UNL1       -0.2865
     22 C          63.0537   82.6394   12.5750 C.ar    1  UNL1        0.0601
     23 C          62.5290   82.8652   13.9620 C.ar    1  UNL1        0.0615
     24 CL         62.7891   84.1675   14.6594 Cl      1  UNL1       -0.0821
     25 C          61.7443   81.7888   14.6515 C.ar    1  UNL1        0.0115
     26 C          61.4843   80.4865   13.9540 C.ar    1  UNL1        0.0017
     27 C          62.0089   80.2608   12.5670 C.ar    1  UNL1        0.0115
     28 C          62.7937   81.3372   11.8775 C.ar    1  UNL1        0.0615
     29 CL         63.3183   81.1114   10.4905 Cl      1  UNL1       -0.0821
@<TRIPOS>UNITY_ATOM_ATTR
17 1
charge -1
@<TRIPOS>BOND
     1    17    18   ar
     2    18    19   ar
     3    18    11    1
     4    11    12   ar
     5    12    13   ar
     6    13    14   ar
     7    14     1    1
     8     1     2   ar
     9     2     3   ar
    10     3    20    1
    11    20    21    2
    12    20    22    1
    13    22    23   ar
    14    23    24    1
    15    23    25   ar
    16    25    26   ar
    17    26    27   ar
    18    27    28   ar
    19    28    29    1
    20     3     4   ar
    21     4     5   ar
    22     5     6   ar
    23     6     7   ar
    24     7     8   ar
    25     8     9    1
    26     8    10   ar
    27    14    15   ar
    28    15    16   ar
    29    16    11   ar
    30    10     1   ar
    31    28    22   ar
    32    10     4   ar
