@<TRIPOS>MOLECULE
*****
 31 35 0 0 0
SMALL
GASTEIGER

@<TRIPOS>ATOM
      1 C          62.7960   84.7048   15.2494 C.ar    1  UNL1        0.1845
      2 N          62.2247   84.6272   16.6342 N.ar    1  UNL1       -0.1274
      3 N          62.3365   85.9865   17.2585 N.ar    1  UNL1       -0.1316
      4 C          62.9768   86.9042   16.2596 C.ar    1  UNL1        0.1615
      5 N          63.2608   86.1121   15.0179 N.ar    1  UNL1       -0.2944
      6 C          63.9059   86.7745   13.8369 C.3     1  UNL1        0.1302
      7 C          64.2671   88.2292   13.8975 C.3     1  UNL1        0.1186
      8 N          63.9832   89.0213   15.1393 N.am    1  UNL1       -0.2688
      9 C          64.3443   90.4759   15.2000 C.2     1  UNL1        0.2493
     10 O          64.0603   91.2680   16.4417 O.2     1  UNL1       -0.2699
     11 C          63.3380   88.3588   16.3203 C.3     1  UNL1        0.1343
     12 C          63.0540   89.1509   17.5621 C.3     1  UNL1        0.0298
     13 C          64.9895   91.1383   14.0189 C.ar    1  UNL1        0.0536
     14 C          64.1956   91.3830   12.7699 C.ar    1  UNL1        0.0045
     15 C          64.8408   92.0455   11.5889 C.ar    1  UNL1        0.0006
     16 C          66.2798   92.4633   11.6568 C.ar    1  UNL1        0.0060
     17 C          67.0737   92.2186   12.9058 C.ar    1  UNL1        0.0006
     18 C          66.4285   91.5562   14.0868 C.ar    1  UNL1        0.0045
     19 C          66.9251   93.1258   10.4757 C.ar    1  UNL1        0.0295
     20 C          67.9258   92.4987    9.5509 C.ar    1  UNL1        0.0070
     21 C          68.3020   93.5170    8.5158 C.ar    1  UNL1        0.0075
     22 C          67.5338   94.7735    8.8009 C.ar    1  UNL1        0.0354
     23 S          66.6827   94.5317   10.0123 S.2     1  UNL1       -0.0864
     24 C          63.2502   82.3123   12.2269 C.ar    1  UNL1        0.0879
     25 N          63.3028   83.6842   12.8315 N.ar    1  UNL1       -0.2396
     26 C          62.8865   83.5738   14.2683 C.ar    1  UNL1        0.1237
     27 C          62.5767   82.1338   14.5519 C.ar    1  UNL1        0.0588
     28 S          62.8015   81.3542   13.2903 S.2     1  UNL1       -0.0701
     29 C          64.3013   82.9526    9.9388 C.3     1  UNL1        0.0069
     30 C          63.5872   81.9605   10.8083 C.3     1  UNL1        0.0466
     31 C          63.2103   80.6166   10.2591 C.3     1  UNL1        0.0069
@<TRIPOS>BOND
     1    29    30    1
     2    30    31    1
     3    30    24    1
     4    24    25   ar
     5    25    26   ar
     6    26     1    1
     7     1     2   ar
     8     2     3   ar
     9     3     4   ar
    10     4     5   ar
    11     5     6    1
    12     6     7    1
    13     7     8    1
    14     8     9   am
    15     9    10    2
    16     9    13    1
    17    13    14   ar
    18    14    15   ar
    19    15    16   ar
    20    16    19    1
    21    19    20   ar
    22    20    21   ar
    23    21    22   ar
    24    22    23   ar
    25    16    17   ar
    26    17    18   ar
    27     8    11    1
    28    11    12    1
    29    26    27   ar
    30    27    28   ar
    31    28    24   ar
    32     5     1   ar
    33    18    13   ar
    34    11     4    1
    35    23    19   ar
@<TRIPOS>MOLECULE
*****
 31 35 0 0 0
SMALL
GASTEIGER

@<TRIPOS>ATOM
      1 C          71.8009   73.7979   14.7823 C.ar    1  UNL1        0.1845
      2 N          72.1717   73.9830   16.2239 N.ar    1  UNL1       -0.1274
      3 N          72.6570   75.3913   16.4004 N.ar    1  UNL1       -0.1316
      4 C          72.5862   76.0766   15.0680 C.ar    1  UNL1        0.1615
      5 N          72.0571   75.0918   14.0679 N.ar    1  UNL1       -0.2944
      6 C          71.8769   75.5004   12.6359 C.3     1  UNL1        0.1302
      7 C          72.2258   76.8939   12.2040 C.3     1  UNL1        0.1186
      8 N          72.7549   77.8787   13.2041 N.am    1  UNL1       -0.2688
      9 C          73.1037   79.2722   12.7723 C.2     1  UNL1        0.2493
     10 O          73.6328   80.2570   13.7723 O.2     1  UNL1       -0.2699
     11 C          72.9351   77.4700   14.6361 C.3     1  UNL1        0.1343
     12 C          73.4641   78.4548   15.6362 C.3     1  UNL1        0.0298
     13 C          72.9235   79.6808   11.3403 C.ar    1  UNL1        0.0536
     14 C          72.3121   81.0103   11.0110 C.ar    1  UNL1        0.0045
     15 C          72.1319   81.4189    9.5790 C.ar    1  UNL1        0.0006
     16 C          72.5631   80.4980    8.4763 C.ar    1  UNL1        0.0060
     17 C          73.1746   79.1685    8.8056 C.ar    1  UNL1        0.0006
     18 C          73.3548   78.7599   10.2376 C.ar    1  UNL1        0.0045
     19 C          72.3830   80.9066    7.0443 C.ar    1  UNL1        0.0295
     20 C          71.1429   80.7156    6.2223 C.ar    1  UNL1        0.0070
     21 C          71.4048   81.2689    4.8529 C.ar    1  UNL1        0.0075
     22 C          72.8067   81.8019    4.8285 C.ar    1  UNL1        0.0354
     23 S          73.4113   81.5780    6.1830 S.2     1  UNL1       -0.0864
     24 C          70.1762   71.0013   12.6363 C.ar    1  UNL1        0.0879
     25 N          70.5160   72.4438   12.8691 N.ar    1  UNL1       -0.2396
     26 C          71.2677   72.5398   14.1636 C.ar    1  UNL1        0.1237
     27 C          71.3924   71.1568   14.7309 C.ar    1  UNL1        0.0588
     28 S          70.7179   70.2060   13.7870 S.2     1  UNL1       -0.0701
     29 C          70.0113   70.5550   10.0821 C.3     1  UNL1        0.0069
     30 C          69.4264   70.4510   11.4595 C.3     1  UNL1        0.0466
     31 C          68.0916   69.7967   11.6600 C.3     1  UNL1        0.0069
@<TRIPOS>BOND
     1    29    30    1
     2    30    31    1
     3    30    24    1
     4    24    25   ar
     5    25    26   ar
     6    26     1    1
     7     1     2   ar
     8     2     3   ar
     9     3     4   ar
    10     4     5   ar
    11     5     6    1
    12     6     7    1
    13     7     8    1
    14     8     9   am
    15     9    10    2
    16     9    13    1
    17    13    14   ar
    18    14    15   ar
    19    15    16   ar
    20    16    19    1
    21    19    20   ar
    22    20    21   ar
    23    21    22   ar
    24    22    23   ar
    25    16    17   ar
    26    17    18   ar
    27     8    11    1
    28    11    12    1
    29    26    27   ar
    30    27    28   ar
    31    28    24   ar
    32     5     1   ar
    33    18    13   ar
    34    11     4    1
    35    23    19   ar
