@<TRIPOS>MOLECULE
*****
 31 33 0 0 0
SMALL
GASTEIGER

@<TRIPOS>ATOM
      1 C          62.3711   82.0989   13.6964 C.ar    1  UNL1        0.0107
      2 C          62.4744   82.9887   14.8997 C.ar    1  UNL1       -0.0044
      3 C          62.9623   84.3991   14.7499 C.ar    1  UNL1       -0.0094
      4 C          63.3470   84.9199   13.3969 C.ar    1  UNL1        0.0495
      5 C          63.2438   84.0303   12.1936 C.ar    1  UNL1        0.0506
      6 C          62.7558   82.6198   12.3434 C.ar    1  UNL1        0.1308
      7 O          62.6526   81.7302   11.1401 O.3     1  UNL1       -0.5058
      8 H          62.8929   82.0555   10.2949 H       1  UNL1        0.2922
      9 C          63.2913   80.1878   13.7182 C.3     1  UNL1        0.0045
     10 C          61.8832   80.6885   13.8462 C.3     1  UNL1        0.0218
     11 C          60.4751   81.1892   13.9743 C.3     1  UNL1        0.0045
     12 C          61.3953   79.2780   13.9960 C.3     1  UNL1        0.0045
     13 C          63.0655   85.2887   15.9532 C.3     1  UNL1        0.0201
     14 C          64.5614   85.2613   15.8451 C.3     1  UNL1        0.0044
     15 C          61.5697   85.3161   16.0613 C.3     1  UNL1        0.0044
     16 C          63.1687   86.1784   17.1565 C.3     1  UNL1        0.0044
     17 N          63.8349   86.3304   13.2471 N.am    1  UNL1       -0.2804
     18 C          62.9924   87.3433   12.5301 C.2     1  UNL1        0.2541
     19 O          61.6619   86.9458   11.9629 O.2     1  UNL1       -0.2696
     20 H          64.7082   86.5913   13.6194 H       1  UNL1        0.1552
     21 C          63.4804   88.7539   12.3803 C.2     1  UNL1        0.1116
     22 C          63.1086   89.5511   11.1653 C.2     1  UNL1        0.1062
     23 N          63.5965   90.9615   11.0155 N.2     1  UNL1       -0.2475
     24 C          64.4564   91.5748   12.0807 C.2     1  UNL1        0.0664
     25 C          64.9443   92.9853   11.9309 C.3     1  UNL1        0.0718
     26 C          65.8041   93.5985   12.9961 C.2     1  UNL1       -0.0198
     27 C          66.1759   92.8013   14.2111 C.2     1  UNL1       -0.0040
     28 C          65.6880   91.3909   14.3609 C.2     1  UNL1        0.0041
     29 C          64.8282   90.7776   13.2957 C.2     1  UNL1        0.0530
     30 C          64.3402   89.3671   13.4455 C.2     1  UNL1        0.2026
     31 O          64.7120   88.5699   14.6605 O.2     1  UNL1       -0.2863
@<TRIPOS>BOND
     1     9    10    1
     2    10    11    1
     3    10    12    1
     4    10     1    1
     5     1     2   ar
     6     2     3   ar
     7     3    13    1
     8    13    14    1
     9    13    15    1
    10    13    16    1
    11     3     4   ar
    12     4    17    1
    13    17    18   am
    14    18    19    2
    15    18    21    1
    16    21    22    2
    17    22    23    1
    18    23    24    2
    19    24    25    1
    20    25    26    1
    21    26    27    2
    22    27    28    1
    23    28    29    2
    24    29    30    1
    25    30    31    2
    26     4     5   ar
    27     5     6   ar
    28     6     7    1
    29     6     1   ar
    30    30    21    1
    31    29    24    1
    32    17    20    1
    33     7     8    1
@<TRIPOS>MOLECULE
*****
 31 33 0 0 0
SMALL
GASTEIGER

@<TRIPOS>ATOM
      1 C          62.3888   82.6213   13.4298 C.ar    1  UNL1        0.0107
      2 C          62.1798   83.3016   12.1093 C.ar    1  UNL1       -0.0044
      3 C          62.6683   84.7047   11.9029 C.ar    1  UNL1       -0.0094
      4 C          63.3657   85.4276   13.0169 C.ar    1  UNL1        0.0495
      5 C          63.5747   84.7474   14.3373 C.ar    1  UNL1        0.0506
      6 C          63.0863   83.3442   14.5438 C.ar    1  UNL1        0.1308
      7 O          63.2953   82.6640   15.8642 O.3     1  UNL1       -0.5058
      8 H          63.7309   83.1156   16.5601 H       1  UNL1        0.2922
      9 C          60.6303   81.7481   14.2329 C.3     1  UNL1        0.0045
     10 C          61.9004   81.2182   13.6362 C.3     1  UNL1        0.0218
     11 C          63.1705   80.6883   13.0396 C.3     1  UNL1        0.0045
     12 C          61.4120   79.8150   13.8427 C.3     1  UNL1        0.0045
     13 C          62.4592   85.3849   10.5825 C.3     1  UNL1        0.0201
     14 C          63.4718   84.4746    9.9533 C.3     1  UNL1        0.0044
     15 C          61.4466   86.2952   11.2117 C.3     1  UNL1        0.0044
     16 C          62.2502   86.0652    9.2620 C.3     1  UNL1        0.0044
     17 N          63.8541   86.8307   12.8105 N.am    1  UNL1       -0.2804
     18 C          63.9517   87.7700   13.9759 C.2     1  UNL1        0.2541
     19 O          63.5609   87.3061   15.3478 O.2     1  UNL1       -0.2696
     20 H          64.1106   87.1352   11.9101 H       1  UNL1        0.1552
     21 C          64.4402   89.1732   13.7694 C.2     1  UNL1        0.1116
     22 C          65.2087   89.8671   14.8547 C.2     1  UNL1        0.1062
     23 N          65.6972   91.2702   14.6483 N.2     1  UNL1       -0.2475
     24 C          65.4171   91.9795   13.3565 C.2     1  UNL1        0.0664
     25 C          65.9055   93.3826   13.1501 C.3     1  UNL1        0.0718
     26 C          65.6254   94.0918   11.8584 C.2     1  UNL1       -0.0198
     27 C          64.8568   93.3979   10.7731 C.2     1  UNL1       -0.0040
     28 C          64.3684   91.9948   10.9796 C.2     1  UNL1        0.0041
     29 C          64.6485   91.2856   12.2713 C.2     1  UNL1        0.0530
     30 C          64.1600   89.8824   12.4777 C.2     1  UNL1        0.2026
     31 O          63.3915   89.1885   11.3925 O.2     1  UNL1       -0.2863
@<TRIPOS>BOND
     1     9    10    1
     2    10    11    1
     3    10    12    1
     4    10     1    1
     5     1     2   ar
     6     2     3   ar
     7     3    13    1
     8    13    14    1
     9    13    15    1
    10    13    16    1
    11     3     4   ar
    12     4    17    1
    13    17    18   am
    14    18    19    2
    15    18    21    1
    16    21    22    2
    17    22    23    1
    18    23    24    2
    19    24    25    1
    20    25    26    1
    21    26    27    2
    22    27    28    1
    23    28    29    2
    24    29    30    1
    25    30    31    2
    26     4     5   ar
    27     5     6   ar
    28     6     7    1
    29     6     1   ar
    30    30    21    1
    31    29    24    1
    32    17    20    1
    33     7     8    1
@<TRIPOS>MOLECULE
*****
 31 33 0 0 0
SMALL
GASTEIGER

@<TRIPOS>ATOM
      1 C          62.4172   82.4644   13.3961 C.ar    1  UNL1        0.0107
      2 C          62.4402   82.8852   11.9565 C.ar    1  UNL1       -0.0044
      3 C          62.7913   84.2976   11.5934 C.ar    1  UNL1       -0.0094
      4 C          63.1193   85.2893   12.6699 C.ar    1  UNL1        0.0495
      5 C          63.0964   84.8686   14.1095 C.ar    1  UNL1        0.0506
      6 C          62.7453   83.4561   14.4726 C.ar    1  UNL1        0.1308
      7 O          62.7223   83.0354   15.9122 O.3     1  UNL1       -0.5058
      8 H          62.9273   83.6549   16.5847 H       1  UNL1        0.2922
      9 C          60.6340   81.4563   13.9469 C.3     1  UNL1        0.0045
     10 C          62.0662   81.0520   13.7592 C.3     1  UNL1        0.0218
     11 C          63.4984   80.6478   13.5714 C.3     1  UNL1        0.0045
     12 C          61.7152   79.6396   14.1222 C.3     1  UNL1        0.0045
     13 C          62.8142   84.7183   10.1538 C.3     1  UNL1        0.0201
     14 C          61.6520   85.6332   10.4027 C.3     1  UNL1        0.0044
     15 C          63.9765   83.8033    9.9050 C.3     1  UNL1        0.0044
     16 C          62.8372   85.1390    8.7141 C.3     1  UNL1        0.0044
     17 N          63.4704   86.7017   12.3069 N.am    1  UNL1       -0.2804
     18 C          63.6567   87.7288   13.3840 C.2     1  UNL1        0.2541
     19 O          63.4919   87.3435   14.8243 O.2     1  UNL1       -0.2696
     20 H          63.5785   86.9546   11.3616 H       1  UNL1        0.1552
     21 C          64.0077   89.1413   13.0209 C.2     1  UNL1        0.1116
     22 C          63.4073   89.7731   11.8001 C.2     1  UNL1        0.1062
     23 N          63.7584   91.1855   11.4370 N.2     1  UNL1       -0.2475
     24 C          64.7098   91.9661   12.2946 C.2     1  UNL1        0.0664
     25 C          65.0608   93.3785   11.9315 C.3     1  UNL1        0.0718
     26 C          66.0122   94.1590   12.7891 C.2     1  UNL1       -0.0198
     27 C          66.6125   93.5272   14.0099 C.2     1  UNL1       -0.0040
     28 C          66.2615   92.1148   14.3731 C.2     1  UNL1        0.0041
     29 C          65.3101   91.3343   13.5154 C.2     1  UNL1        0.0530
     30 C          64.9591   89.9218   13.8786 C.2     1  UNL1        0.2026
     31 O          65.5595   89.2899   15.0994 O.2     1  UNL1       -0.2863
@<TRIPOS>BOND
     1     9    10    1
     2    10    11    1
     3    10    12    1
     4    10     1    1
     5     1     2   ar
     6     2     3   ar
     7     3    13    1
     8    13    14    1
     9    13    15    1
    10    13    16    1
    11     3     4   ar
    12     4    17    1
    13    17    18   am
    14    18    19    2
    15    18    21    1
    16    21    22    2
    17    22    23    1
    18    23    24    2
    19    24    25    1
    20    25    26    1
    21    26    27    2
    22    27    28    1
    23    28    29    2
    24    29    30    1
    25    30    31    2
    26     4     5   ar
    27     5     6   ar
    28     6     7    1
    29     6     1   ar
    30    30    21    1
    31    29    24    1
    32    17    20    1
    33     7     8    1
@<TRIPOS>MOLECULE
*****
 31 33 0 0 0
SMALL
GASTEIGER

@<TRIPOS>ATOM
      1 C          62.6885   84.4272   13.6006 C.ar    1  UNL1        0.0107
      2 C          62.1660   85.1952   12.4226 C.ar    1  UNL1       -0.0044
      3 C          62.6702   86.5807   12.1472 C.ar    1  UNL1       -0.0094
      4 C          63.6969   87.1984   13.0496 C.ar    1  UNL1        0.0495
      5 C          64.2194   86.4306   14.2274 C.ar    1  UNL1        0.0506
      6 C          63.7152   85.0450   14.5029 C.ar    1  UNL1        0.1308
      7 O          64.2377   84.2771   15.6808 O.3     1  UNL1       -0.5058
      8 H          64.8790   84.6630   16.2445 H       1  UNL1        0.2922
      9 C          61.7902   83.4605   15.2614 C.3     1  UNL1        0.0045
     10 C          62.1843   83.0417   13.8760 C.3     1  UNL1        0.0218
     11 C          62.5783   82.6229   12.4907 C.3     1  UNL1        0.0045
     12 C          61.6800   81.6561   14.1515 C.3     1  UNL1        0.0045
     13 C          62.1477   87.3485   10.9693 C.3     1  UNL1        0.0201
     14 C          62.5578   86.2299   10.0581 C.3     1  UNL1        0.0044
     15 C          61.7376   88.4672   11.8805 C.3     1  UNL1        0.0044
     16 C          61.6252   88.1165    9.7914 C.3     1  UNL1        0.0044
     17 N          64.2011   88.5840   12.7741 N.am    1  UNL1       -0.2804
     18 C          64.4129   89.5441   13.9069 C.2     1  UNL1        0.2541
     19 O          64.1205   89.1186   15.3153 O.2     1  UNL1       -0.2696
     20 H          64.3930   88.8633   11.8497 H       1  UNL1        0.1552
     21 C          64.9172   90.9297   13.6314 C.2     1  UNL1        0.1116
     22 C          65.5779   91.7183   14.7230 C.2     1  UNL1        0.1062
     23 N          66.0821   93.1038   14.4476 N.2     1  UNL1       -0.2475
     24 C          65.9257   93.7009   13.0804 C.2     1  UNL1        0.0664
     25 C          66.4299   95.0865   12.8049 C.3     1  UNL1        0.0718
     26 C          66.2734   95.6835   11.4378 C.2     1  UNL1       -0.0198
     27 C          65.6127   94.8949   10.3462 C.2     1  UNL1       -0.0040
     28 C          65.1085   93.5094   10.6217 C.2     1  UNL1        0.0041
     29 C          65.2650   92.9124   11.9888 C.2     1  UNL1        0.0530
     30 C          64.7607   91.5267   12.2643 C.2     1  UNL1        0.2026
     31 O          64.1000   90.7382   11.1727 O.2     1  UNL1       -0.2863
@<TRIPOS>BOND
     1     9    10    1
     2    10    11    1
     3    10    12    1
     4    10     1    1
     5     1     2   ar
     6     2     3   ar
     7     3    13    1
     8    13    14    1
     9    13    15    1
    10    13    16    1
    11     3     4   ar
    12     4    17    1
    13    17    18   am
    14    18    19    2
    15    18    21    1
    16    21    22    2
    17    22    23    1
    18    23    24    2
    19    24    25    1
    20    25    26    1
    21    26    27    2
    22    27    28    1
    23    28    29    2
    24    29    30    1
    25    30    31    2
    26     4     5   ar
    27     5     6   ar
    28     6     7    1
    29     6     1   ar
    30    30    21    1
    31    29    24    1
    32    17    20    1
    33     7     8    1
@<TRIPOS>MOLECULE
*****
 31 33 0 0 0
SMALL
GASTEIGER

@<TRIPOS>ATOM
      1 C          67.3236   92.9209   14.8012 C.ar    1  UNL1        0.0107
      2 C          67.6751   92.8978   13.3430 C.ar    1  UNL1       -0.0044
      3 C          66.6734   92.4122   12.3377 C.ar    1  UNL1       -0.0094
      4 C          65.3202   91.9495   12.7905 C.ar    1  UNL1        0.0495
      5 C          64.9688   91.9726   14.2485 C.ar    1  UNL1        0.0506
      6 C          65.9705   92.4583   15.2539 C.ar    1  UNL1        0.1308
      7 O          65.6190   92.4813   16.7119 O.3     1  UNL1       -0.5058
      8 H          64.7738   92.1923   16.9947 H       1  UNL1        0.2922
      9 C          68.1214   94.8141   15.3297 C.3     1  UNL1        0.0045
     10 C          68.3253   93.4066   15.8065 C.3     1  UNL1        0.0218
     11 C          68.5292   91.9991   16.2833 C.3     1  UNL1        0.0045
     12 C          69.3270   93.8922   16.8118 C.3     1  UNL1        0.0045
     13 C          67.0248   92.3891   10.8797 C.3     1  UNL1        0.0201
     14 C          68.1755   91.4722   11.1716 C.3     1  UNL1        0.0044
     15 C          65.8742   93.3061   10.5879 C.3     1  UNL1        0.0044
     16 C          67.3762   92.3661    9.4216 C.3     1  UNL1        0.0044
     17 N          64.3185   91.4639   11.7852 N.am    1  UNL1       -0.2804
     18 C          63.3387   90.3919   12.1603 C.2     1  UNL1        0.2541
     19 O          63.3606   89.8055   13.5408 O.2     1  UNL1       -0.2696
     20 H          64.3042   91.8487   10.8791 H       1  UNL1        0.1552
     21 C          62.3370   89.9062   11.1549 C.2     1  UNL1        0.1116
     22 C          61.4099   90.8797   10.4894 C.2     1  UNL1        0.1062
     23 N          60.4082   90.3941    9.4840 N.2     1  UNL1       -0.2475
     24 C          60.3335   88.9349    9.1442 C.2     1  UNL1        0.0664
     25 C          59.3318   88.4493    8.1389 C.3     1  UNL1        0.0718
     26 C          59.2572   86.9903    7.7991 C.2     1  UNL1       -0.0198
     27 C          60.1842   86.0168    8.4646 C.2     1  UNL1       -0.0040
     28 C          61.1859   86.5024    9.4700 C.2     1  UNL1        0.0041
     29 C          61.2606   87.9615    9.8098 C.2     1  UNL1        0.0530
     30 C          62.2623   88.4471   10.8152 C.2     1  UNL1        0.2026
     31 O          63.1893   87.4737   11.4807 O.2     1  UNL1       -0.2863
@<TRIPOS>BOND
     1     9    10    1
     2    10    11    1
     3    10    12    1
     4    10     1    1
     5     1     2   ar
     6     2     3   ar
     7     3    13    1
     8    13    14    1
     9    13    15    1
    10    13    16    1
    11     3     4   ar
    12     4    17    1
    13    17    18   am
    14    18    19    2
    15    18    21    1
    16    21    22    2
    17    22    23    1
    18    23    24    2
    19    24    25    1
    20    25    26    1
    21    26    27    2
    22    27    28    1
    23    28    29    2
    24    29    30    1
    25    30    31    2
    26     4     5   ar
    27     5     6   ar
    28     6     7    1
    29     6     1   ar
    30    30    21    1
    31    29    24    1
    32    17    20    1
    33     7     8    1
@<TRIPOS>MOLECULE
*****
 31 33 0 0 0
SMALL
GASTEIGER

@<TRIPOS>ATOM
      1 C          65.0135   91.6971   12.8725 C.ar    1  UNL1        0.0107
      2 C          63.8626   91.2941   11.9989 C.ar    1  UNL1       -0.0044
      3 C          63.2884   89.9125   12.1049 C.ar    1  UNL1       -0.0094
      4 C          63.8649   88.9338   13.0846 C.ar    1  UNL1        0.0495
      5 C          65.0157   89.3367   13.9582 C.ar    1  UNL1        0.0506
      6 C          65.5900   90.7184   13.8522 C.ar    1  UNL1        0.1308
      7 O          66.7408   91.1214   14.7258 O.3     1  UNL1       -0.5058
      8 H          67.1010   90.5100   15.3377 H       1  UNL1        0.2922
      9 C          65.7748   93.1152   14.2542 C.3     1  UNL1        0.0045
     10 C          65.5877   93.0787   12.7664 C.3     1  UNL1        0.0218
     11 C          65.4006   93.0423   11.2786 C.3     1  UNL1        0.0045
     12 C          66.1620   94.4604   12.6604 C.3     1  UNL1        0.0045
     13 C          62.1376   89.5095   11.2313 C.3     1  UNL1        0.0201
     14 C          61.1825   89.8244   12.3442 C.3     1  UNL1        0.0044
     15 C          63.0926   89.1946   10.1184 C.3     1  UNL1        0.0044
     16 C          60.9867   89.1066   10.3576 C.3     1  UNL1        0.0044
     17 N          63.2907   87.5522   13.1907 N.am    1  UNL1       -0.2804
     18 C          63.9601   86.5261   14.0562 C.2     1  UNL1        0.2541
     19 O          65.2038   86.8817   14.8156 O.2     1  UNL1       -0.2696
     20 H          62.4744   87.3188   12.6922 H       1  UNL1        0.1552
     21 C          63.3858   85.1444   14.1622 C.2     1  UNL1        0.1116
     22 C          62.6732   84.7224   15.4128 C.2     1  UNL1        0.1062
     23 N          62.0989   83.3408   15.5189 N.2     1  UNL1       -0.2475
     24 C          62.2372   82.3811   14.3743 C.2     1  UNL1        0.0664
     25 C          61.6629   80.9995   14.4804 C.3     1  UNL1        0.0718
     26 C          61.8012   80.0400   13.3358 C.2     1  UNL1       -0.0198
     27 C          62.5137   80.4620   12.0852 C.2     1  UNL1       -0.0040
     28 C          63.0880   81.8436   11.9791 C.2     1  UNL1        0.0041
     29 C          62.9498   82.8032   13.1237 C.2     1  UNL1        0.0530
     30 C          63.5241   84.1849   13.0176 C.2     1  UNL1        0.2026
     31 O          64.2366   84.6069   11.7670 O.2     1  UNL1       -0.2863
@<TRIPOS>BOND
     1     9    10    1
     2    10    11    1
     3    10    12    1
     4    10     1    1
     5     1     2   ar
     6     2     3   ar
     7     3    13    1
     8    13    14    1
     9    13    15    1
    10    13    16    1
    11     3     4   ar
    12     4    17    1
    13    17    18   am
    14    18    19    2
    15    18    21    1
    16    21    22    2
    17    22    23    1
    18    23    24    2
    19    24    25    1
    20    25    26    1
    21    26    27    2
    22    27    28    1
    23    28    29    2
    24    29    30    1
    25    30    31    2
    26     4     5   ar
    27     5     6   ar
    28     6     7    1
    29     6     1   ar
    30    30    21    1
    31    29    24    1
    32    17    20    1
    33     7     8    1
@<TRIPOS>MOLECULE
*****
 31 33 0 0 0
SMALL
GASTEIGER

@<TRIPOS>ATOM
      1 C          66.7132   91.9875   14.6415 C.ar    1  UNL1        0.0107
      2 C          65.8964   90.9198   15.3071 C.ar    1  UNL1       -0.0044
      3 C          64.7884   90.2447   14.5546 C.ar    1  UNL1       -0.0094
      4 C          64.4970   90.6372   13.1364 C.ar    1  UNL1        0.0495
      5 C          65.3138   91.7048   12.4708 C.ar    1  UNL1        0.0506
      6 C          66.4219   92.3800   13.2233 C.ar    1  UNL1        0.1308
      7 O          67.2386   93.4476   12.5577 O.3     1  UNL1       -0.5058
      8 H          67.0566   93.6928   11.6719 H       1  UNL1        0.2922
      9 C          68.8102   92.1711   14.3789 C.3     1  UNL1        0.0045
     10 C          67.8213   92.6626   15.3940 C.3     1  UNL1        0.0218
     11 C          66.8324   93.1541   16.4091 C.3     1  UNL1        0.0045
     12 C          68.9294   93.3378   16.1465 C.3     1  UNL1        0.0045
     13 C          63.9716   89.1770   15.2202 C.3     1  UNL1        0.0201
     14 C          63.3591   90.2076   16.1216 C.3     1  UNL1        0.0044
     15 C          64.5842   88.1465   14.3188 C.3     1  UNL1        0.0044
     16 C          63.1549   88.1093   15.8858 C.3     1  UNL1        0.0044
     17 N          63.3890   89.9620   12.3839 N.am    1  UNL1       -0.2804
     18 C          63.0124   90.4414   11.0134 C.2     1  UNL1        0.2541
     19 O          63.7439   91.5959   10.3953 O.2     1  UNL1       -0.2696
     20 H          62.9088   89.2043   12.7895 H       1  UNL1        0.1552
     21 C          61.9043   89.7662   10.2608 C.2     1  UNL1        0.1116
     22 C          60.6101   90.4870   10.0248 C.2     1  UNL1        0.1062
     23 N          59.5020   89.8119    9.2723 N.2     1  UNL1       -0.2475
     24 C          59.6880   88.4159    8.7558 C.2     1  UNL1        0.0664
     25 C          58.5799   87.7407    8.0034 C.3     1  UNL1        0.0718
     26 C          58.7659   86.3448    7.4869 C.2     1  UNL1       -0.0198
     27 C          60.0601   85.6240    7.7230 C.2     1  UNL1       -0.0040
     28 C          61.1682   86.2991    8.4754 C.2     1  UNL1        0.0041
     29 C          60.9821   87.6951    8.9919 C.2     1  UNL1        0.0530
     30 C          62.0903   88.3703    9.7444 C.2     1  UNL1        0.2026
     31 O          63.3844   87.6495    9.9804 O.2     1  UNL1       -0.2863
@<TRIPOS>BOND
     1     9    10    1
     2    10    11    1
     3    10    12    1
     4    10     1    1
     5     1     2   ar
     6     2     3   ar
     7     3    13    1
     8    13    14    1
     9    13    15    1
    10    13    16    1
    11     3     4   ar
    12     4    17    1
    13    17    18   am
    14    18    19    2
    15    18    21    1
    16    21    22    2
    17    22    23    1
    18    23    24    2
    19    24    25    1
    20    25    26    1
    21    26    27    2
    22    27    28    1
    23    28    29    2
    24    29    30    1
    25    30    31    2
    26     4     5   ar
    27     5     6   ar
    28     6     7    1
    29     6     1   ar
    30    30    21    1
    31    29    24    1
    32    17    20    1
    33     7     8    1
@<TRIPOS>MOLECULE
*****
 31 33 0 0 0
SMALL
GASTEIGER

@<TRIPOS>ATOM
      1 C          67.2490   92.9529   14.7938 C.ar    1  UNL1        0.0107
      2 C          67.4835   92.9306   13.3124 C.ar    1  UNL1       -0.0044
      3 C          66.5042   92.2426   12.4082 C.ar    1  UNL1       -0.0094
      4 C          65.2903   91.5768   12.9855 C.ar    1  UNL1        0.0495
      5 C          65.0557   91.5991   14.4668 C.ar    1  UNL1        0.0506
      6 C          66.0351   92.2871   15.3710 C.ar    1  UNL1        0.1308
      7 O          65.8005   92.3093   16.8524 O.3     1  UNL1       -0.5058
      8 H          65.0422   91.8935   17.2129 H       1  UNL1        0.2922
      9 C          68.6544   92.3119   16.2477 C.3     1  UNL1        0.0045
     10 C          68.2283   93.6409   15.6979 C.3     1  UNL1        0.0218
     11 C          67.8023   94.9698   15.1481 C.3     1  UNL1        0.0045
     12 C          69.2077   94.3288   16.6020 C.3     1  UNL1        0.0045
     13 C          66.7387   92.2203   10.9269 C.3     1  UNL1        0.0201
     14 C          65.4158   92.8922   10.7073 C.3     1  UNL1        0.0044
     15 C          68.0617   91.5484   11.1465 C.3     1  UNL1        0.0044
     16 C          66.9734   92.1981    9.4455 C.3     1  UNL1        0.0044
     17 N          64.3109   90.8888   12.0813 N.am    1  UNL1       -0.2804
     18 C          63.7436   89.5548   12.4667 C.2     1  UNL1        0.2541
     19 O          64.1556   88.9088   13.7562 O.2     1  UNL1       -0.2696
     20 H          64.0405   91.3128   11.2350 H       1  UNL1        0.1552
     21 C          62.7642   88.8668   11.5625 C.2     1  UNL1        0.1116
     22 C          62.4707   87.4074   11.7467 C.2     1  UNL1        0.1062
     23 N          61.4913   86.7194   10.8426 N.2     1  UNL1       -0.2475
     24 C          60.8054   87.4908    9.7542 C.2     1  UNL1        0.0664
     25 C          59.8261   86.8028    8.8501 C.3     1  UNL1        0.0718
     26 C          59.1402   87.5742    7.7618 C.2     1  UNL1       -0.0198
     27 C          59.4337   89.0337    7.5776 C.2     1  UNL1       -0.0040
     28 C          60.4130   89.7217    8.4817 C.2     1  UNL1        0.0041
     29 C          61.0989   88.9502    9.5700 C.2     1  UNL1        0.0530
     30 C          62.0783   89.6382   10.4742 C.2     1  UNL1        0.2026
     31 O          62.3718   91.0977   10.2901 O.2     1  UNL1       -0.2863
@<TRIPOS>BOND
     1     9    10    1
     2    10    11    1
     3    10    12    1
     4    10     1    1
     5     1     2   ar
     6     2     3   ar
     7     3    13    1
     8    13    14    1
     9    13    15    1
    10    13    16    1
    11     3     4   ar
    12     4    17    1
    13    17    18   am
    14    18    19    2
    15    18    21    1
    16    21    22    2
    17    22    23    1
    18    23    24    2
    19    24    25    1
    20    25    26    1
    21    26    27    2
    22    27    28    1
    23    28    29    2
    24    29    30    1
    25    30    31    2
    26     4     5   ar
    27     5     6   ar
    28     6     7    1
    29     6     1   ar
    30    30    21    1
    31    29    24    1
    32    17    20    1
    33     7     8    1
@<TRIPOS>MOLECULE
*****
 31 33 0 0 0
SMALL
GASTEIGER

@<TRIPOS>ATOM
      1 C          62.3597   82.3712   13.8361 C.ar    1  UNL1        0.0107
      2 C          62.3268   83.2003   15.0857 C.ar    1  UNL1       -0.0044
      3 C          62.9085   84.5829   15.0840 C.ar    1  UNL1       -0.0094
      4 C          63.5231   85.1364   13.8326 C.ar    1  UNL1        0.0495
      5 C          63.5560   84.3074   12.5830 C.ar    1  UNL1        0.0506
      6 C          62.9743   82.9247   12.5847 C.ar    1  UNL1        0.1308
      7 O          63.0072   82.0957   11.3351 O.3     1  UNL1       -0.5058
      8 H          63.3911   82.4415   10.5534 H       1  UNL1        0.2922
      9 C          60.3967   81.5699   13.9004 C.3     1  UNL1        0.0045
     10 C          61.7780   80.9886   13.8378 C.3     1  UNL1        0.0218
     11 C          63.1594   80.4074   13.7753 C.3     1  UNL1        0.0045
     12 C          61.1963   79.6060   13.8396 C.3     1  UNL1        0.0045
     13 C          62.8756   85.4119   16.3336 C.3     1  UNL1        0.0201
     14 C          64.3586   85.2444   16.4838 C.3     1  UNL1        0.0044
     15 C          61.3926   85.5795   16.1834 C.3     1  UNL1        0.0044
     16 C          62.8427   86.2410   17.5833 C.3     1  UNL1        0.0044
     17 N          64.1048   86.5190   13.8309 N.am    1  UNL1       -0.2804
     18 C          63.4073   87.6252   13.0961 C.2     1  UNL1        0.2541
     19 O          62.1282   87.3488   12.3631 O.2     1  UNL1       -0.2696
     20 H          64.9443   86.7005   14.3120 H       1  UNL1        0.1552
     21 C          63.9891   89.0079   13.0944 C.2     1  UNL1        0.1116
     22 C          64.6716   89.5359   14.3213 C.2     1  UNL1        0.1062
     23 N          65.2533   90.9184   14.3196 N.2     1  UNL1       -0.2475
     24 C          65.1526   91.7731   13.0910 C.2     1  UNL1        0.0664
     25 C          65.7343   93.1556   13.0893 C.3     1  UNL1        0.0718
     26 C          65.6336   94.0102   11.8607 C.2     1  UNL1       -0.0198
     27 C          64.9511   93.4822   10.6337 C.2     1  UNL1       -0.0040
     28 C          64.3693   92.0996   10.6354 C.2     1  UNL1        0.0041
     29 C          64.4701   91.2451   11.8640 C.2     1  UNL1        0.0530
     30 C          63.8883   89.8624   11.8658 C.2     1  UNL1        0.2026
     31 O          63.2058   89.3344   10.6388 O.2     1  UNL1       -0.2863
@<TRIPOS>BOND
     1     9    10    1
     2    10    11    1
     3    10    12    1
     4    10     1    1
     5     1     2   ar
     6     2     3   ar
     7     3    13    1
     8    13    14    1
     9    13    15    1
    10    13    16    1
    11     3     4   ar
    12     4    17    1
    13    17    18   am
    14    18    19    2
    15    18    21    1
    16    21    22    2
    17    22    23    1
    18    23    24    2
    19    24    25    1
    20    25    26    1
    21    26    27    2
    22    27    28    1
    23    28    29    2
    24    29    30    1
    25    30    31    2
    26     4     5   ar
    27     5     6   ar
    28     6     7    1
    29     6     1   ar
    30    30    21    1
    31    29    24    1
    32    17    20    1
    33     7     8    1
