@<TRIPOS>MOLECULE
*****
 26 29 0 0 0
SMALL
GASTEIGER

@<TRIPOS>ATOM
      1 C          62.8801   90.0210   12.1960 C.3     1  UNL1        0.2068
      2 C          63.2831   85.3027   12.6550 C.3     1  UNL1        0.0222
      3 C          62.5002   86.0647   11.6272 C.3     1  UNL1        0.0842
      4 C          61.6773   85.4675   10.5244 C.3     1  UNL1        0.0478
      5 C          61.0711   86.5914    9.7374 C.ar    1  UNL1       -0.0068
      6 C          60.1690   86.6053    8.5392 C.ar    1  UNL1       -0.0030
      7 C          59.7150   87.9112    7.9573 C.ar    1  UNL1       -0.0002
      8 C          60.1633   89.2032    8.5737 C.ar    1  UNL1        0.0013
      9 C          61.0655   89.1892    9.7720 C.ar    1  UNL1        0.0146
     10 C          61.5194   87.8833   10.3538 C.ar    1  UNL1        0.0498
     11 N          62.4026   87.5578   11.5217 N.am    1  UNL1       -0.2598
     12 C          63.0708   88.5511   12.4255 C.2     1  UNL1        0.2418
     13 O          63.9299   88.0743   13.5591 O.2     1  UNL1       -0.2739
     14 C          63.9468   90.9899   12.6124 C.2     1  UNL1        0.3580
     15 N          64.6711   91.7985   11.5772 N.2     1  UNL1       -0.0039
     16 C          65.7379   92.7673   11.9936 C.2     1  UNL1        0.3159
     17 C          66.0803   92.9276   13.4452 C.3     1  UNL1        0.2333
     18 C          65.3561   92.1189   14.4803 C.2     1  UNL1        0.3644
     19 O          65.6985   92.2791   15.9319 O.2     1  UNL1       -0.2422
     20 N          64.2893   91.1501   14.0639 N.am    1  UNL1        0.0289
     21 N          66.4622   93.5759   10.9585 N.pl3   1  UNL1       -0.1888
     22 C          67.3901   92.9002    9.9930 C.3     1  UNL1        0.2343
     23 C          68.1144   93.7088    8.9579 C.3     1  UNL1        0.1929
     24 O          67.9107   95.1933    8.8882 O.3     1  UNL1       -0.3449
     25 C          66.9828   95.8690    9.8536 C.3     1  UNL1        0.1929
     26 C          66.2585   95.0604   10.8888 C.3     1  UNL1        0.2343
@<TRIPOS>BOND
     1     3     2    1
     2     3     4    1
     3     4     5    1
     4     5     6   ar
     5     6     7   ar
     6     7     8   ar
     7     8     9   ar
     8     9    10   ar
     9    10    11    1
    10    11    12   am
    11    12    13    2
    12    12     1    1
    13     1    14    1
    14    14    15    1
    15    15    16    2
    16    16    21    1
    17    21    22    1
    18    22    23    1
    19    23    24    1
    20    24    25    1
    21    25    26    1
    22    16    17    1
    23    17    18    1
    24    18    19    2
    25    18    20    1
    26    11     3    1
    27    20    14    2
    28    10     5   ar
    29    26    21    1
@<TRIPOS>MOLECULE
*****
 26 29 0 0 0
SMALL
GASTEIGER

@<TRIPOS>ATOM
      1 C          64.4254   88.7581   14.5197 C.3     1  UNL1        0.2068
      2 C          62.9702   90.6250   10.3926 C.3     1  UNL1        0.0222
      3 C          63.9110   91.2257   11.3946 C.3     1  UNL1        0.0842
      4 C          64.5860   92.5604   11.2805 C.3     1  UNL1        0.0478
      5 C          65.4342   92.7569   12.5019 C.ar    1  UNL1       -0.0068
      6 C          66.3244   93.8838   12.9351 C.ar    1  UNL1       -0.0030
      7 C          67.0638   93.7974   14.2373 C.ar    1  UNL1       -0.0002
      8 C          66.9130   92.5841   15.1063 C.ar    1  UNL1        0.0013
      9 C          66.0228   91.4572   14.6732 C.ar    1  UNL1        0.0146
     10 C          65.2834   91.5436   13.3710 C.ar    1  UNL1        0.0498
     11 N          64.3421   90.5973   12.6866 N.am    1  UNL1       -0.2598
     12 C          63.9079   89.2578   13.2035 C.2     1  UNL1        0.2418
     13 O          62.9563   88.4178   12.4041 O.2     1  UNL1       -0.2739
     14 C          63.8690   87.4988   15.1151 C.2     1  UNL1        0.3580
     15 N          63.8664   86.2290   14.3166 N.2     1  UNL1       -0.0039
     16 C          63.3100   84.9697   14.9121 C.2     1  UNL1        0.3159
     17 C          62.7561   84.9802   16.3060 C.3     1  UNL1        0.2333
     18 C          62.7587   86.2500   17.1045 C.2     1  UNL1        0.3644
     19 O          62.2049   86.2605   18.4984 O.2     1  UNL1       -0.2422
     20 N          63.3151   87.5093   16.5090 N.am    1  UNL1        0.0289
     21 N          63.3074   83.6999   14.1136 N.pl3   1  UNL1       -0.1888
     22 C          64.2443   83.5419   12.9528 C.3     1  UNL1        0.2343
     23 C          64.2417   82.2721   12.1543 C.3     1  UNL1        0.1929
     24 O          63.3023   81.1602   12.5166 O.3     1  UNL1       -0.3449
     25 C          62.3655   81.3182   13.6773 C.3     1  UNL1        0.1929
     26 C          62.3680   82.5880   14.4758 C.3     1  UNL1        0.2343
@<TRIPOS>BOND
     1     3     2    1
     2     3     4    1
     3     4     5    1
     4     5     6   ar
     5     6     7   ar
     6     7     8   ar
     7     8     9   ar
     8     9    10   ar
     9    10    11    1
    10    11    12   am
    11    12    13    2
    12    12     1    1
    13     1    14    1
    14    14    15    1
    15    15    16    2
    16    16    21    1
    17    21    22    1
    18    22    23    1
    19    23    24    1
    20    24    25    1
    21    25    26    1
    22    16    17    1
    23    17    18    1
    24    18    19    2
    25    18    20    1
    26    11     3    1
    27    20    14    2
    28    10     5   ar
    29    26    21    1
@<TRIPOS>MOLECULE
*****
 26 29 0 0 0
SMALL
GASTEIGER

@<TRIPOS>ATOM
      1 C          63.4975   89.7843   13.3245 C.3     1  UNL1        0.2068
      2 C          60.9756   89.2294    9.3286 C.3     1  UNL1        0.0222
      3 C          61.5767   88.1620   10.1942 C.3     1  UNL1        0.0842
      4 C          61.4934   86.6833    9.9565 C.3     1  UNL1        0.0478
      5 C          62.2319   85.9933   11.0649 C.ar    1  UNL1       -0.0068
      6 C          62.4827   84.5428   11.3531 C.ar    1  UNL1       -0.0030
      7 C          63.2731   84.1445   12.5641 C.ar    1  UNL1       -0.0002
      8 C          63.8128   85.1968   13.4869 C.ar    1  UNL1        0.0013
      9 C          63.5621   86.6473   13.1986 C.ar    1  UNL1        0.0146
     10 C          62.7716   87.0455   11.9876 C.ar    1  UNL1        0.0498
     11 N          62.3667   88.3859   11.4495 N.am    1  UNL1       -0.2598
     12 C          62.6942   89.7165   12.0596 C.2     1  UNL1        0.2418
     13 O          62.2184   90.9794   11.4048 O.2     1  UNL1       -0.2739
     14 C          64.4543   90.9182   13.5456 C.2     1  UNL1        0.3580
     15 N          64.9997   91.6786   12.3734 N.2     1  UNL1       -0.0039
     16 C          65.9565   92.8126   12.5945 C.2     1  UNL1        0.3159
     17 C          66.3678   93.1860   13.9878 C.3     1  UNL1        0.2333
     18 C          65.8223   92.4255   15.1600 C.2     1  UNL1        0.3644
     19 O          66.2335   92.7989   16.5533 O.2     1  UNL1       -0.2422
     20 N          64.8656   91.2916   14.9389 N.am    1  UNL1        0.0289
     21 N          66.5019   93.5730   11.4222 N.pl3   1  UNL1       -0.1888
     22 C          67.2349   92.8477   10.3330 C.3     1  UNL1        0.2343
     23 C          67.7804   93.6081    9.1607 C.3     1  UNL1        0.1929
     24 O          67.5929   95.0940    9.0777 O.3     1  UNL1       -0.3449
     25 C          66.8599   95.8194   10.1670 C.3     1  UNL1        0.1929
     26 C          66.3144   95.0589   11.3392 C.3     1  UNL1        0.2343
@<TRIPOS>BOND
     1     3     2    1
     2     3     4    1
     3     4     5    1
     4     5     6   ar
     5     6     7   ar
     6     7     8   ar
     7     8     9   ar
     8     9    10   ar
     9    10    11    1
    10    11    12   am
    11    12    13    2
    12    12     1    1
    13     1    14    1
    14    14    15    1
    15    15    16    2
    16    16    21    1
    17    21    22    1
    18    22    23    1
    19    23    24    1
    20    24    25    1
    21    25    26    1
    22    16    17    1
    23    17    18    1
    24    18    19    2
    25    18    20    1
    26    11     3    1
    27    20    14    2
    28    10     5   ar
    29    26    21    1
@<TRIPOS>MOLECULE
*****
 26 29 0 0 0
SMALL
GASTEIGER

@<TRIPOS>ATOM
      1 C          61.9981   90.1860   11.6539 C.3     1  UNL1        0.2068
      2 C          63.6690   90.3827   16.1042 C.3     1  UNL1        0.0222
      3 C          64.2733   90.9761   14.8662 C.3     1  UNL1        0.0842
      4 C          65.5491   91.7621   14.7975 C.3     1  UNL1        0.0478
      5 C          65.7723   92.1595   13.3684 C.ar    1  UNL1       -0.0068
      6 C          66.8646   92.9436   12.7036 C.ar    1  UNL1       -0.0030
      7 C          66.8191   93.1874   11.2243 C.ar    1  UNL1       -0.0002
      8 C          65.6813   92.6470   10.4098 C.ar    1  UNL1        0.0013
      9 C          64.5890   91.8629   11.0746 C.ar    1  UNL1        0.0146
     10 C          64.6345   91.6192   12.5539 C.ar    1  UNL1        0.0498
     11 N          63.7081   90.8878   13.4796 N.am    1  UNL1       -0.2598
     12 C          62.4392   90.1905   13.0875 C.2     1  UNL1        0.2418
     13 O          61.6114   89.4976   14.1291 O.2     1  UNL1       -0.2739
     14 C          61.6603   88.8907   10.9771 C.2     1  UNL1        0.3580
     15 N          62.3708   87.6302   11.3727 N.2     1  UNL1       -0.0039
     16 C          62.0330   86.3349   10.6960 C.2     1  UNL1        0.3159
     17 C          60.9849   86.3000    9.6235 C.3     1  UNL1        0.2333
     18 C          60.2744   87.5604    9.2279 C.2     1  UNL1        0.3644
     19 O          59.2263   87.5257    8.1555 O.2     1  UNL1       -0.2422
     20 N          60.6122   88.8558    9.9047 N.am    1  UNL1        0.0289
     21 N          62.7435   85.0744   11.0916 N.pl3   1  UNL1       -0.1888
     22 C          63.4108   84.2301   10.0468 C.3     1  UNL1        0.2343
     23 C          64.1212   82.9696   10.4424 C.3     1  UNL1        0.1929
     24 O          64.1644   82.5535   11.8829 O.3     1  UNL1       -0.3449
     25 C          63.4970   83.3979   12.9277 C.3     1  UNL1        0.1929
     26 C          62.7866   84.6583   12.5321 C.3     1  UNL1        0.2343
@<TRIPOS>BOND
     1     3     2    1
     2     3     4    1
     3     4     5    1
     4     5     6   ar
     5     6     7   ar
     6     7     8   ar
     7     8     9   ar
     8     9    10   ar
     9    10    11    1
    10    11    12   am
    11    12    13    2
    12    12     1    1
    13     1    14    1
    14    14    15    1
    15    15    16    2
    16    16    21    1
    17    21    22    1
    18    22    23    1
    19    23    24    1
    20    24    25    1
    21    25    26    1
    22    16    17    1
    23    17    18    1
    24    18    19    2
    25    18    20    1
    26    11     3    1
    27    20    14    2
    28    10     5   ar
    29    26    21    1
@<TRIPOS>MOLECULE
*****
 26 29 0 0 0
SMALL
GASTEIGER

@<TRIPOS>ATOM
      1 C          62.3703   90.2064   11.8987 C.3     1  UNL1        0.2068
      2 C          65.8800   92.9122   10.1678 C.3     1  UNL1        0.0222
      3 C          65.5915   92.5847   11.6029 C.3     1  UNL1        0.0842
      4 C          66.3747   93.0604   12.7905 C.3     1  UNL1        0.0478
      5 C          65.7365   92.4936   14.0240 C.ar    1  UNL1       -0.0068
      6 C          66.0755   92.6229   15.4794 C.ar    1  UNL1       -0.0030
      7 C          65.2369   91.9262   16.5095 C.ar    1  UNL1       -0.0002
      8 C          64.0593   91.1002   16.0843 C.ar    1  UNL1        0.0013
      9 C          63.7203   90.9708   14.6289 C.ar    1  UNL1        0.0146
     10 C          64.5589   91.6675   13.5987 C.ar    1  UNL1        0.0498
     11 N          64.4693   91.7238   12.1024 N.am    1  UNL1       -0.2598
     12 C          63.4384   91.0394   11.2546 C.2     1  UNL1        0.2418
     13 O          63.4757   91.1881    9.7623 O.2     1  UNL1       -0.2739
     14 C          62.0593   88.8403   11.3629 C.2     1  UNL1        0.3580
     15 N          62.6643   87.6272   12.0051 N.2     1  UNL1       -0.0039
     16 C          62.3533   86.2611   11.4693 C.2     1  UNL1        0.3159
     17 C          61.4373   86.1081   10.2913 C.3     1  UNL1        0.2333
     18 C          60.8323   87.3212    9.6492 C.2     1  UNL1        0.3644
     19 O          59.9163   87.1683    8.4713 O.2     1  UNL1       -0.2422
     20 N          61.1433   88.6873   10.1850 N.am    1  UNL1        0.0289
     21 N          62.9583   85.0480   12.1114 N.pl3   1  UNL1       -0.1888
     22 C          63.6846   85.1742   13.4177 C.3     1  UNL1        0.2343
     23 C          64.2896   83.9611   14.0598 C.3     1  UNL1        0.1929
     24 O          64.1683   82.6216   13.3956 O.3     1  UNL1       -0.3449
     25 C          63.4420   82.4954   12.0893 C.3     1  UNL1        0.1929
     26 C          62.8370   83.7085   11.4472 C.3     1  UNL1        0.2343
@<TRIPOS>BOND
     1     3     2    1
     2     3     4    1
     3     4     5    1
     4     5     6   ar
     5     6     7   ar
     6     7     8   ar
     7     8     9   ar
     8     9    10   ar
     9    10    11    1
    10    11    12   am
    11    12    13    2
    12    12     1    1
    13     1    14    1
    14    14    15    1
    15    15    16    2
    16    16    21    1
    17    21    22    1
    18    22    23    1
    19    23    24    1
    20    24    25    1
    21    25    26    1
    22    16    17    1
    23    17    18    1
    24    18    19    2
    25    18    20    1
    26    11     3    1
    27    20    14    2
    28    10     5   ar
    29    26    21    1
@<TRIPOS>MOLECULE
*****
 26 29 0 0 0
SMALL
GASTEIGER

@<TRIPOS>ATOM
      1 C          62.6741   90.2731   11.4948 C.3     1  UNL1        0.2068
      2 C          63.0339   85.6160   12.3990 C.3     1  UNL1        0.0222
      3 C          62.2356   86.2860   11.3203 C.3     1  UNL1        0.0842
      4 C          61.3800   85.5964   10.2993 C.3     1  UNL1        0.0478
      5 C          60.7682   86.6473    9.4210 C.ar    1  UNL1       -0.0068
      6 C          59.8381   86.5579    8.2477 C.ar    1  UNL1       -0.0030
      7 C          59.3854   87.8076    7.5526 C.ar    1  UNL1       -0.0002
      8 C          59.8629   89.1468    8.0308 C.ar    1  UNL1        0.0013
      9 C          60.7931   89.2362    9.2041 C.ar    1  UNL1        0.0146
     10 C          61.2457   87.9865    9.8992 C.ar    1  UNL1        0.0498
     11 N          62.1526   87.7631   11.0730 N.am    1  UNL1       -0.2598
     12 C          62.8534   88.8297   11.8612 C.2     1  UNL1        0.2418
     13 O          63.7337   88.4528   13.0159 O.2     1  UNL1       -0.2739
     14 C          63.8333   91.2205   11.5889 C.2     1  UNL1        0.3580
     15 N          64.6473   91.2870   12.8470 N.2     1  UNL1       -0.0039
     16 C          65.8065   92.2343   12.9412 C.2     1  UNL1        0.3159
     17 C          66.1516   93.1152   11.7772 C.3     1  UNL1        0.2333
     18 C          65.3376   93.0487   10.5190 C.2     1  UNL1        0.3644
     19 O          65.6827   93.9295    9.3550 O.2     1  UNL1       -0.2422
     20 N          64.1784   92.1013   10.4249 N.am    1  UNL1        0.0289
     21 N          66.6205   92.3008   14.1993 N.pl3   1  UNL1       -0.1888
     22 C          65.9391   92.4610   15.5259 C.3     1  UNL1        0.2343
     23 C          66.7531   92.5275   16.7841 C.3     1  UNL1        0.1929
     24 O          68.2486   92.4338   16.7156 O.3     1  UNL1       -0.3449
     25 C          68.9300   92.2736   15.3890 C.3     1  UNL1        0.1929
     26 C          68.1160   92.2071   14.1309 C.3     1  UNL1        0.2343
@<TRIPOS>BOND
     1     3     2    1
     2     3     4    1
     3     4     5    1
     4     5     6   ar
     5     6     7   ar
     6     7     8   ar
     7     8     9   ar
     8     9    10   ar
     9    10    11    1
    10    11    12   am
    11    12    13    2
    12    12     1    1
    13     1    14    1
    14    14    15    1
    15    15    16    2
    16    16    21    1
    17    21    22    1
    18    22    23    1
    19    23    24    1
    20    24    25    1
    21    25    26    1
    22    16    17    1
    23    17    18    1
    24    18    19    2
    25    18    20    1
    26    11     3    1
    27    20    14    2
    28    10     5   ar
    29    26    21    1
@<TRIPOS>MOLECULE
*****
 26 29 0 0 0
SMALL
GASTEIGER

@<TRIPOS>ATOM
      1 C          63.4903   87.8241   12.3466 C.3     1  UNL1        0.2068
      2 C          59.6589   90.4604   11.3437 C.3     1  UNL1        0.0222
      3 C          60.1999   89.2917   10.5747 C.3     1  UNL1        0.0842
      4 C          59.6203   88.7210    9.3144 C.3     1  UNL1        0.0478
      5 C          60.4777   87.5651    8.8916 C.ar    1  UNL1       -0.0068
      6 C          60.3915   86.6249    7.7261 C.ar    1  UNL1       -0.0030
      7 C          61.4148   85.5410    7.5596 C.ar    1  UNL1       -0.0002
      8 C          62.5244   85.3972    8.5587 C.ar    1  UNL1        0.0013
      9 C          62.6106   86.3374    9.7242 C.ar    1  UNL1        0.0146
     10 C          61.5873   87.4214    9.8907 C.ar    1  UNL1        0.0498
     11 N          61.4156   88.4884   10.9309 N.am    1  UNL1       -0.2598
     12 C          62.3037   88.7128   12.1187 C.2     1  UNL1        0.2418
     13 O          62.0052   89.8261   13.0787 O.2     1  UNL1       -0.2739
     14 C          63.4115   86.7097   13.3475 C.2     1  UNL1        0.3580
     15 N          63.1701   85.3029   12.8863 N.2     1  UNL1       -0.0039
     16 C          63.0914   84.1885   13.8872 C.2     1  UNL1        0.3159
     17 C          63.2539   84.4809   15.3495 C.3     1  UNL1        0.2333
     18 C          63.4953   85.8876   15.8107 C.2     1  UNL1        0.3644
     19 O          63.6579   86.1801   17.2729 O.2     1  UNL1       -0.2422
     20 N          63.5741   87.0020   14.8097 N.am    1  UNL1        0.0289
     21 N          62.8500   82.7818   13.4260 N.pl3   1  UNL1       -0.1888
     22 C          62.1047   81.8217   14.3050 C.3     1  UNL1        0.2343
     23 C          61.8633   80.4149   13.8437 C.3     1  UNL1        0.1929
     24 O          62.3673   79.9682   12.5034 O.3     1  UNL1       -0.3449
     25 C          63.1126   80.9283   11.6244 C.3     1  UNL1        0.1929
     26 C          63.3540   82.3350   12.0857 C.3     1  UNL1        0.2343
@<TRIPOS>BOND
     1     3     2    1
     2     3     4    1
     3     4     5    1
     4     5     6   ar
     5     6     7   ar
     6     7     8   ar
     7     8     9   ar
     8     9    10   ar
     9    10    11    1
    10    11    12   am
    11    12    13    2
    12    12     1    1
    13     1    14    1
    14    14    15    1
    15    15    16    2
    16    16    21    1
    17    21    22    1
    18    22    23    1
    19    23    24    1
    20    24    25    1
    21    25    26    1
    22    16    17    1
    23    17    18    1
    24    18    19    2
    25    18    20    1
    26    11     3    1
    27    20    14    2
    28    10     5   ar
    29    26    21    1
@<TRIPOS>MOLECULE
*****
 26 29 0 0 0
SMALL
GASTEIGER

@<TRIPOS>ATOM
      1 C          63.4521   90.3270   12.3238 C.3     1  UNL1        0.2068
      2 C          65.3976   93.9347    9.9083 C.3     1  UNL1        0.0222
      3 C          65.6519   93.5358   11.3318 C.3     1  UNL1        0.0842
      4 C          66.5903   94.2161   12.2839 C.3     1  UNL1        0.0478
      5 C          66.5309   93.4873   13.5936 C.ar    1  UNL1       -0.0068
      6 C          67.2386   93.7073   14.8977 C.ar    1  UNL1       -0.0030
      7 C          66.9713   92.7964   16.0590 C.ar    1  UNL1       -0.0002
      8 C          65.9962   91.6656   15.9163 C.ar    1  UNL1        0.0013
      9 C          65.2884   91.4456   14.6123 C.ar    1  UNL1        0.0146
     10 C          65.5557   92.3565   13.4509 C.ar    1  UNL1        0.0498
     11 N          65.0126   92.3864   12.0530 N.am    1  UNL1       -0.2598
     12 C          64.0066   91.4342   11.4775 C.2     1  UNL1        0.2418
     13 O          63.5550   91.5893   10.0554 O.2     1  UNL1       -0.2739
     14 C          62.2713   89.5357   11.8444 C.2     1  UNL1        0.3580
     15 N          62.4333   88.5503   10.7252 N.2     1  UNL1       -0.0039
     16 C          61.2526   87.7591   10.2458 C.2     1  UNL1        0.3159
     17 C          59.9098   87.9533   10.8857 C.3     1  UNL1        0.2333
     18 C          59.7479   88.9387   12.0049 C.2     1  UNL1        0.3644
     19 O          58.4052   89.1330   12.6448 O.2     1  UNL1       -0.2422
     20 N          60.9286   89.7299   12.4843 N.am    1  UNL1        0.0289
     21 N          61.4145   86.7736    9.1266 N.pl3   1  UNL1       -0.1888
     22 C          62.7164   86.0509    8.9461 C.3     1  UNL1        0.2343
     23 C          62.8784   85.0655    7.8269 C.3     1  UNL1        0.1929
     24 O          61.7384   84.8027    6.8881 O.3     1  UNL1       -0.3449
     25 C          60.4365   85.5255    7.0685 C.3     1  UNL1        0.1929
     26 C          60.2745   86.5109    8.1878 C.3     1  UNL1        0.2343
@<TRIPOS>BOND
     1     3     2    1
     2     3     4    1
     3     4     5    1
     4     5     6   ar
     5     6     7   ar
     6     7     8   ar
     7     8     9   ar
     8     9    10   ar
     9    10    11    1
    10    11    12   am
    11    12    13    2
    12    12     1    1
    13     1    14    1
    14    14    15    1
    15    15    16    2
    16    16    21    1
    17    21    22    1
    18    22    23    1
    19    23    24    1
    20    24    25    1
    21    25    26    1
    22    16    17    1
    23    17    18    1
    24    18    19    2
    25    18    20    1
    26    11     3    1
    27    20    14    2
    28    10     5   ar
    29    26    21    1
@<TRIPOS>MOLECULE
*****
 26 29 0 0 0
SMALL
GASTEIGER

@<TRIPOS>ATOM
      1 C          61.0305   86.8068   11.1936 C.3     1  UNL1        0.2068
      2 C          63.1689   84.5089    7.6183 C.3     1  UNL1        0.0222
      3 C          63.2971   84.2464    9.0896 C.3     1  UNL1        0.0842
      4 C          64.1442   83.1841    9.7251 C.3     1  UNL1        0.0478
      5 C          63.9714   83.2812   11.2119 C.ar    1  UNL1       -0.0068
      6 C          64.5594   82.4927   12.3443 C.ar    1  UNL1       -0.0030
      7 C          64.1934   82.8264   13.7602 C.ar    1  UNL1       -0.0002
      8 C          63.2394   83.9487   14.0436 C.ar    1  UNL1        0.0013
      9 C          62.6514   84.7372   12.9112 C.ar    1  UNL1        0.0146
     10 C          63.0174   84.4035   11.4954 C.ar    1  UNL1        0.0498
     11 N          62.6006   85.0000   10.1837 N.am    1  UNL1       -0.2598
     12 C          61.6537   86.1485    9.9986 C.2     1  UNL1        0.2418
     13 O          61.3299   86.6387    8.6183 O.2     1  UNL1       -0.2739
     14 C          61.0702   88.2998   11.3333 C.2     1  UNL1        0.3580
     15 N          62.3854   89.0036   11.4910 N.2     1  UNL1       -0.0039
     16 C          62.4252   90.4965   11.6307 C.2     1  UNL1        0.3159
     17 C          61.1497   91.2857   11.6127 C.3     1  UNL1        0.2333
     18 C          59.8345   90.5819   11.4550 C.2     1  UNL1        0.3644
     19 O          58.5590   91.3710   11.4370 O.2     1  UNL1       -0.2422
     20 N          59.7947   89.0889   11.3153 N.am    1  UNL1        0.0289
     21 N          63.7404   91.2003   11.7884 N.pl3   1  UNL1       -0.1888
     22 C          64.3461   91.9277   10.6248 C.3     1  UNL1        0.2343
     23 C          65.6613   92.6315   10.7825 C.3     1  UNL1        0.1929
     24 O          66.3709   92.6079   12.1038 O.3     1  UNL1       -0.3449
     25 C          65.7652   91.8806   13.2674 C.3     1  UNL1        0.1929
     26 C          64.4499   91.1768   13.1097 C.3     1  UNL1        0.2343
@<TRIPOS>BOND
     1     3     2    1
     2     3     4    1
     3     4     5    1
     4     5     6   ar
     5     6     7   ar
     6     7     8   ar
     7     8     9   ar
     8     9    10   ar
     9    10    11    1
    10    11    12   am
    11    12    13    2
    12    12     1    1
    13     1    14    1
    14    14    15    1
    15    15    16    2
    16    16    21    1
    17    21    22    1
    18    22    23    1
    19    23    24    1
    20    24    25    1
    21    25    26    1
    22    16    17    1
    23    17    18    1
    24    18    19    2
    25    18    20    1
    26    11     3    1
    27    20    14    2
    28    10     5   ar
    29    26    21    1
