@<TRIPOS>MOLECULE
*****
 21 24 0 0 0
SMALL
GASTEIGER

@<TRIPOS>ATOM
      1 O          62.6089   89.5551   15.1405 O.2     1  UNL1       -0.2638
      2 C          63.2465   90.2975   14.0036 C.2     1  UNL1        0.3160
      3 N          64.2860   91.3431   14.2797 N.am    1  UNL1       -0.1720
      4 C          64.9236   92.0855   13.1429 C.ar    1  UNL1        0.0775
      5 C          65.9630   93.1310   13.4190 C.ar    1  UNL1        0.0167
      6 C          66.6005   93.8734   12.2822 C.ar    1  UNL1        0.0013
      7 C          66.1986   93.5702   10.8692 C.ar    1  UNL1        0.0002
      8 C          65.1592   92.5246   10.5931 C.ar    1  UNL1        0.0051
      9 C          64.5216   91.7823   11.7299 C.ar    1  UNL1        0.0623
     10 C          63.4821   90.7367   11.4538 C.2     1  UNL1        0.2419
     11 N          62.8877   90.2255   10.1750 N.2     1  UNL1       -0.0302
     12 C          61.8828   89.1672   10.5215 C.2     1  UNL1        0.3765
     13 N          61.8561   89.0243   12.0144 N.2     1  UNL1       -0.0256
     14 C          62.8446   89.9943   12.5906 C.2     1  UNL1        0.2907
     15 C          61.0505   88.3884    9.5462 C.ar    1  UNL1        0.0989
     16 C          60.0745   89.1003    8.6571 C.ar    1  UNL1        0.0085
     17 C          59.2424   88.3215    7.6819 C.ar    1  UNL1        0.0003
     18 C          59.3863   86.8309    7.5959 C.ar    1  UNL1        0.0009
     19 C          60.3623   86.1191    8.4850 C.ar    1  UNL1        0.0116
     20 C          61.1944   86.8978    9.4602 C.ar    1  UNL1        0.0651
     21 CL         62.1705   86.1860   10.3494 Cl      1  UNL1       -0.0820
@<TRIPOS>BOND
     1     1     2    2
     2     2     3    1
     3     3     4    2
     4     4     5   ar
     5     5     6   ar
     6     6     7   ar
     7     7     8   ar
     8     8     9   ar
     9     9    10    2
    10    10    11    1
    11    11    12    2
    12    12    15    1
    13    15    16   ar
    14    16    17   ar
    15    17    18   ar
    16    18    19   ar
    17    19    20   ar
    18    20    21    1
    19    12    13    1
    20    13    14    2
    21    14     2    1
    22     9     4   ar
    23    14    10    1
    24    20    15   ar
@<TRIPOS>MOLECULE
*****
 21 24 0 0 0
SMALL
GASTEIGER

@<TRIPOS>ATOM
      1 O          61.2448   87.7138    9.0196 O.2     1  UNL1       -0.2638
      2 C          62.0009   87.9625   10.2910 C.2     1  UNL1        0.3160
      3 N          62.4207   89.3562   10.6536 N.am    1  UNL1       -0.1720
      4 C          63.1768   89.6049   11.9251 C.ar    1  UNL1        0.0775
      5 C          63.5966   90.9985   12.2877 C.ar    1  UNL1        0.0167
      6 C          64.3527   91.2471   13.5591 C.ar    1  UNL1        0.0013
      7 C          64.6890   90.1022   14.4679 C.ar    1  UNL1        0.0002
      8 C          64.2692   88.7085   14.1053 C.ar    1  UNL1        0.0051
      9 C          63.5131   88.4599   12.8339 C.ar    1  UNL1        0.0623
     10 C          63.0933   87.0662   12.4712 C.2     1  UNL1        0.2419
     11 N          63.2811   85.7491   13.1641 N.2     1  UNL1       -0.0302
     12 C          62.6410   84.6864   12.3208 C.2     1  UNL1        0.3765
     13 N          62.0577   85.3468   11.1069 N.2     1  UNL1       -0.0256
     14 C          62.3372   86.8176   11.1998 C.2     1  UNL1        0.2907
     15 C          62.5928   83.2207   12.6362 C.ar    1  UNL1        0.0989
     16 C          61.9901   82.7507   13.9268 C.ar    1  UNL1        0.0085
     17 C          61.9419   81.2850   14.2421 C.ar    1  UNL1        0.0003
     18 C          62.4964   80.2894   13.2668 C.ar    1  UNL1        0.0009
     19 C          63.0992   80.7594   11.9762 C.ar    1  UNL1        0.0116
     20 C          63.1474   82.2251   11.6609 C.ar    1  UNL1        0.0651
     21 CL         63.7502   82.6952   10.3702 Cl      1  UNL1       -0.0820
@<TRIPOS>BOND
     1     1     2    2
     2     2     3    1
     3     3     4    2
     4     4     5   ar
     5     5     6   ar
     6     6     7   ar
     7     7     8   ar
     8     8     9   ar
     9     9    10    2
    10    10    11    1
    11    11    12    2
    12    12    15    1
    13    15    16   ar
    14    16    17   ar
    15    17    18   ar
    16    18    19   ar
    17    19    20   ar
    18    20    21    1
    19    12    13    1
    20    13    14    2
    21    14     2    1
    22     9     4   ar
    23    14    10    1
    24    20    15   ar
@<TRIPOS>MOLECULE
*****
 21 24 0 0 0
SMALL
GASTEIGER

@<TRIPOS>ATOM
      1 O          63.2667   89.6576   12.2924 O.2     1  UNL1       -0.2638
      2 C          62.4231   88.8973   11.3124 C.2     1  UNL1        0.3160
      3 N          61.6582   89.6327   10.2523 N.am    1  UNL1       -0.1720
      4 C          60.8145   88.8724    9.2723 C.ar    1  UNL1        0.0775
      5 C          60.0496   89.6079    8.2122 C.ar    1  UNL1        0.0167
      6 C          59.2060   88.8476    7.2323 C.ar    1  UNL1        0.0013
      7 C          59.1274   87.3518    7.3125 C.ar    1  UNL1        0.0002
      8 C          59.8924   86.6163    8.3726 C.ar    1  UNL1        0.0051
      9 C          60.7359   87.3766    9.3525 C.ar    1  UNL1        0.0623
     10 C          61.5010   86.6412   10.4127 C.2     1  UNL1        0.2419
     11 N          61.6171   85.1811   10.7360 N.2     1  UNL1       -0.0302
     12 C          62.5325   85.0390   11.9158 C.2     1  UNL1        0.3765
     13 N          62.9821   86.4113   12.3215 N.2     1  UNL1       -0.0256
     14 C          62.3445   87.4015   11.3926 C.2     1  UNL1        0.2907
     15 C          62.9288   83.7507   12.5741 C.ar    1  UNL1        0.0989
     16 C          62.3762   83.3967   13.9229 C.ar    1  UNL1        0.0085
     17 C          62.7724   82.1085   14.5812 C.ar    1  UNL1        0.0003
     18 C          63.7214   81.1743   13.8907 C.ar    1  UNL1        0.0009
     19 C          64.2740   81.5283   12.5420 C.ar    1  UNL1        0.0116
     20 C          63.8777   82.8165   11.8837 C.ar    1  UNL1        0.0651
     21 CL         64.4304   83.1705   10.5348 Cl      1  UNL1       -0.0820
@<TRIPOS>BOND
     1     1     2    2
     2     2     3    1
     3     3     4    2
     4     4     5   ar
     5     5     6   ar
     6     6     7   ar
     7     7     8   ar
     8     8     9   ar
     9     9    10    2
    10    10    11    1
    11    11    12    2
    12    12    15    1
    13    15    16   ar
    14    16    17   ar
    15    17    18   ar
    16    18    19   ar
    17    19    20   ar
    18    20    21    1
    19    12    13    1
    20    13    14    2
    21    14     2    1
    22     9     4   ar
    23    14    10    1
    24    20    15   ar
@<TRIPOS>MOLECULE
*****
 21 24 0 0 0
SMALL
GASTEIGER

@<TRIPOS>ATOM
      1 O          62.9632   84.8809   12.4882 O.2     1  UNL1       -0.2638
      2 C          62.3904   85.9868   11.6521 C.2     1  UNL1        0.3160
      3 N          61.4692   85.6655   10.5127 N.am    1  UNL1       -0.1720
      4 C          60.8964   86.7714    9.6766 C.ar    1  UNL1        0.0775
      5 C          59.9752   86.4502    8.5373 C.ar    1  UNL1        0.0167
      6 C          59.4024   87.5560    7.7013 C.ar    1  UNL1        0.0013
      7 C          59.7509   88.9831    8.0046 C.ar    1  UNL1        0.0002
      8 C          60.6721   89.3043    9.1439 C.ar    1  UNL1        0.0051
      9 C          61.2448   88.1985    9.9800 C.ar    1  UNL1        0.0623
     10 C          62.1661   88.5197   11.1194 C.2     1  UNL1        0.2419
     11 N          62.6862   89.8214   11.6531 N.2     1  UNL1       -0.0302
     12 C          63.5805   89.5201   12.8191 C.2     1  UNL1        0.3765
     13 N          63.6130   88.0321   13.0059 N.2     1  UNL1       -0.0256
     14 C          62.7389   87.4139   11.9554 C.2     1  UNL1        0.2907
     15 C          64.3136   90.5295   13.6521 C.ar    1  UNL1        0.0989
     16 C          65.2809   91.4756   13.0048 C.ar    1  UNL1        0.0085
     17 C          66.0139   92.4850   13.8377 C.ar    1  UNL1        0.0003
     18 C          65.7795   92.5483   15.3179 C.ar    1  UNL1        0.0009
     19 C          64.8122   91.6022   15.9652 C.ar    1  UNL1        0.0116
     20 C          64.0792   90.5928   15.1323 C.ar    1  UNL1        0.0651
     21 CL         63.1117   89.6466   15.7796 Cl      1  UNL1       -0.0820
@<TRIPOS>BOND
     1     1     2    2
     2     2     3    1
     3     3     4    2
     4     4     5   ar
     5     5     6   ar
     6     6     7   ar
     7     7     8   ar
     8     8     9   ar
     9     9    10    2
    10    10    11    1
    11    11    12    2
    12    12    15    1
    13    15    16   ar
    14    16    17   ar
    15    17    18   ar
    16    18    19   ar
    17    19    20   ar
    18    20    21    1
    19    12    13    1
    20    13    14    2
    21    14     2    1
    22     9     4   ar
    23    14    10    1
    24    20    15   ar
@<TRIPOS>MOLECULE
*****
 21 24 0 0 0
SMALL
GASTEIGER

@<TRIPOS>ATOM
      1 O          64.7524   88.0410   14.8510 O.2     1  UNL1       -0.2638
      2 C          63.8982   88.0082   13.6184 C.2     1  UNL1        0.3160
      3 N          63.5790   89.2817   12.8930 N.am    1  UNL1       -0.1720
      4 C          62.7248   89.2489   11.6604 C.ar    1  UNL1        0.0775
      5 C          62.4055   90.5225   10.9351 C.ar    1  UNL1        0.0167
      6 C          61.5514   90.4896    9.7025 C.ar    1  UNL1        0.0013
      7 C          61.0164   89.1833    9.1953 C.ar    1  UNL1        0.0002
      8 C          61.3357   87.9098    9.9206 C.ar    1  UNL1        0.0051
      9 C          62.1898   87.9426   11.1532 C.ar    1  UNL1        0.0623
     10 C          62.5091   86.6690   11.8786 C.2     1  UNL1        0.2419
     11 N          62.1267   85.2423   11.6174 N.2     1  UNL1       -0.0302
     12 C          62.7446   84.3933   12.6886 C.2     1  UNL1        0.3765
     13 N          63.5088   85.2954   13.6118 N.2     1  UNL1       -0.0256
     14 C          63.3633   86.7018   13.1111 C.2     1  UNL1        0.2907
     15 C          62.6200   82.9038   12.8145 C.ar    1  UNL1        0.0989
     16 C          61.9667   82.3054   14.0249 C.ar    1  UNL1        0.0085
     17 C          61.8422   80.8159   14.1508 C.ar    1  UNL1        0.0003
     18 C          62.3710   79.9248   13.0663 C.ar    1  UNL1        0.0009
     19 C          63.0244   80.5231   11.8559 C.ar    1  UNL1        0.0116
     20 C          63.1489   82.0126   11.7300 C.ar    1  UNL1        0.0651
     21 CL         63.8023   82.6110   10.5196 Cl      1  UNL1       -0.0820
@<TRIPOS>BOND
     1     1     2    2
     2     2     3    1
     3     3     4    2
     4     4     5   ar
     5     5     6   ar
     6     6     7   ar
     7     7     8   ar
     8     8     9   ar
     9     9    10    2
    10    10    11    1
    11    11    12    2
    12    12    15    1
    13    15    16   ar
    14    16    17   ar
    15    17    18   ar
    16    18    19   ar
    17    19    20   ar
    18    20    21    1
    19    12    13    1
    20    13    14    2
    21    14     2    1
    22     9     4   ar
    23    14    10    1
    24    20    15   ar
@<TRIPOS>MOLECULE
*****
 21 24 0 0 0
SMALL
GASTEIGER

@<TRIPOS>ATOM
      1 O          64.2163   87.2672   14.3836 O.2     1  UNL1       -0.2638
      2 C          63.7807   85.9721   13.7645 C.2     1  UNL1        0.3160
      3 N          64.2033   84.6691   14.3756 N.am    1  UNL1       -0.1720
      4 C          63.7678   83.3741   13.7565 C.ar    1  UNL1        0.0775
      5 C          64.1903   82.0711   14.3677 C.ar    1  UNL1        0.0167
      6 C          63.7548   80.7761   13.7485 C.ar    1  UNL1        0.0013
      7 C          62.8967   80.7842   12.5182 C.ar    1  UNL1        0.0002
      8 C          62.4742   82.0872   11.9070 C.ar    1  UNL1        0.0051
      9 C          62.9097   83.3821   12.5262 C.ar    1  UNL1        0.0623
     10 C          62.4872   84.6852   11.9150 C.2     1  UNL1        0.2419
     11 N          61.6494   85.0049   10.7126 N.2     1  UNL1       -0.0302
     12 C          61.5672   86.4975   10.5885 C.2     1  UNL1        0.3765
     13 N          62.3541   87.1003   11.7143 N.2     1  UNL1       -0.0256
     14 C          62.9227   85.9802   12.5341 C.2     1  UNL1        0.2907
     15 C          60.8278   87.2545    9.5253 C.ar    1  UNL1        0.0989
     16 C          59.9480   86.5211    8.5568 C.ar    1  UNL1        0.0085
     17 C          59.2087   87.2780    7.4937 C.ar    1  UNL1        0.0003
     18 C          59.3491   88.7684    7.3990 C.ar    1  UNL1        0.0009
     19 C          60.2289   89.5019    8.3675 C.ar    1  UNL1        0.0116
     20 C          60.9682   88.7449    9.4306 C.ar    1  UNL1        0.0651
     21 CL         61.8481   89.4784   10.3992 Cl      1  UNL1       -0.0820
@<TRIPOS>BOND
     1     1     2    2
     2     2     3    1
     3     3     4    2
     4     4     5   ar
     5     5     6   ar
     6     6     7   ar
     7     7     8   ar
     8     8     9   ar
     9     9    10    2
    10    10    11    1
    11    11    12    2
    12    12    15    1
    13    15    16   ar
    14    16    17   ar
    15    17    18   ar
    16    18    19   ar
    17    19    20   ar
    18    20    21    1
    19    12    13    1
    20    13    14    2
    21    14     2    1
    22     9     4   ar
    23    14    10    1
    24    20    15   ar
@<TRIPOS>MOLECULE
*****
 21 24 0 0 0
SMALL
GASTEIGER

@<TRIPOS>ATOM
      1 O          63.7723   86.7294   14.8726 O.2     1  UNL1       -0.2638
      2 C          63.9960   88.0394   14.1769 C.2     1  UNL1        0.3160
      3 N          64.8673   89.0846   14.8080 N.am    1  UNL1       -0.1720
      4 C          65.0911   90.3945   14.1123 C.ar    1  UNL1        0.0775
      5 C          65.9624   91.4397   14.7434 C.ar    1  UNL1        0.0167
      6 C          66.1861   92.7496   14.0476 C.ar    1  UNL1        0.0013
      7 C          65.5386   93.0143   12.7208 C.ar    1  UNL1        0.0002
      8 C          64.6673   91.9691   12.0896 C.ar    1  UNL1        0.0051
      9 C          64.4436   90.6592   12.7854 C.ar    1  UNL1        0.0623
     10 C          63.5722   89.6139   12.1542 C.2     1  UNL1        0.2419
     11 N          62.8074   89.5902   10.8641 N.2     1  UNL1       -0.0302
     12 C          62.1110   88.2656   10.7625 C.2     1  UNL1        0.3765
     13 N          62.4454   87.4707   11.9898 N.2     1  UNL1       -0.0256
     14 C          63.3485   88.3041   12.8500 C.2     1  UNL1        0.2907
     15 C          61.2340   87.8149    9.6320 C.ar    1  UNL1        0.0989
     16 C          61.3978   86.4387    9.0583 C.ar    1  UNL1        0.0085
     17 C          60.5209   85.9882    7.9279 C.ar    1  UNL1        0.0003
     18 C          59.4802   86.9138    7.3711 C.ar    1  UNL1        0.0009
     19 C          59.3164   88.2900    7.9447 C.ar    1  UNL1        0.0116
     20 C          60.1933   88.7406    9.0752 C.ar    1  UNL1        0.0651
     21 CL         60.0295   90.1169    9.6489 Cl      1  UNL1       -0.0820
@<TRIPOS>BOND
     1     1     2    2
     2     2     3    1
     3     3     4    2
     4     4     5   ar
     5     5     6   ar
     6     6     7   ar
     7     7     8   ar
     8     8     9   ar
     9     9    10    2
    10    10    11    1
    11    11    12    2
    12    12    15    1
    13    15    16   ar
    14    16    17   ar
    15    17    18   ar
    16    18    19   ar
    17    19    20   ar
    18    20    21    1
    19    12    13    1
    20    13    14    2
    21    14     2    1
    22     9     4   ar
    23    14    10    1
    24    20    15   ar
@<TRIPOS>MOLECULE
*****
 21 24 0 0 0
SMALL
GASTEIGER

@<TRIPOS>ATOM
      1 O          63.5903   84.6426   14.5383 O.2     1  UNL1       -0.2638
      2 C          63.5924   86.0590   14.0444 C.2     1  UNL1        0.3160
      3 N          64.0117   87.1716   14.9589 N.am    1  UNL1       -0.1720
      4 C          64.0139   88.5880   14.4651 C.ar    1  UNL1        0.0775
      5 C          64.4331   89.7005   15.3796 C.ar    1  UNL1        0.0167
      6 C          64.4352   91.1168   14.8857 C.ar    1  UNL1        0.0013
      7 C          64.0181   91.4206   13.4773 C.ar    1  UNL1        0.0002
      8 C          63.5988   90.3081   12.5627 C.ar    1  UNL1        0.0051
      9 C          63.5967   88.8918   13.0566 C.ar    1  UNL1        0.0623
     10 C          63.1774   87.7791   12.1421 C.2     1  UNL1        0.2419
     11 N          62.7188   87.7728   10.7139 N.2     1  UNL1       -0.0302
     12 C          62.4333   86.3525   10.3252 C.2     1  UNL1        0.3765
     13 N          62.7154   85.4811   11.5130 N.2     1  UNL1       -0.0256
     14 C          63.1753   86.3628   12.6360 C.2     1  UNL1        0.2907
     15 C          61.9503   85.8855    8.9839 C.ar    1  UNL1        0.0989
     16 C          62.8590   85.0889    8.0953 C.ar    1  UNL1        0.0085
     17 C          62.3761   84.6220    6.7541 C.ar    1  UNL1        0.0003
     18 C          60.9845   84.9517    6.3016 C.ar    1  UNL1        0.0009
     19 C          60.0758   85.7483    7.1903 C.ar    1  UNL1        0.0116
     20 C          60.5588   86.2152    8.5314 C.ar    1  UNL1        0.0651
     21 CL         59.6501   87.0119    9.4201 Cl      1  UNL1       -0.0820
@<TRIPOS>BOND
     1     1     2    2
     2     2     3    1
     3     3     4    2
     4     4     5   ar
     5     5     6   ar
     6     6     7   ar
     7     7     8   ar
     8     8     9   ar
     9     9    10    2
    10    10    11    1
    11    11    12    2
    12    12    15    1
    13    15    16   ar
    14    16    17   ar
    15    17    18   ar
    16    18    19   ar
    17    19    20   ar
    18    20    21    1
    19    12    13    1
    20    13    14    2
    21    14     2    1
    22     9     4   ar
    23    14    10    1
    24    20    15   ar
