@<TRIPOS>MOLECULE
*****
 38 43 0 0 0
SMALL
GASTEIGER

@<TRIPOS>ATOM
      1 N          64.5081   88.8055   14.7565 N.am    1  UNL1       -0.2823
      2 C          63.5484   89.8565   15.2301 C.2     1  UNL1        0.2493
      3 O          62.1792   89.4645   15.7010 O.2     1  UNL1       -0.2727
      4 H          65.4067   89.0628   14.4474 H       1  UNL1        0.1549
      5 C          63.8028   83.6434   10.5107 C.3     1  UNL1        0.1168
      6 N          63.3340   82.6158   11.4979 N.am    1  UNL1       -0.2567
      7 C          62.9846   81.1904   11.1879 C.2     1  UNL1        0.3100
      8 O          63.0428   80.5422    9.8364 O.2     1  UNL1       -0.2522
      9 N          62.5670   80.5269   12.4667 N.am    1  UNL1       -0.2382
     10 C          62.6582   81.5424   13.5670 C.2     1  UNL1        0.2460
     11 O          62.3325   81.3079   15.0123 O.2     1  UNL1       -0.2729
     12 C          63.1322   82.8334   12.9682 C.3     1  UNL1        0.1386
     13 C          62.9305   83.0509   14.4386 C.3     1  UNL1        0.0535
     14 C          63.2798   84.4764   14.7485 C.ar    1  UNL1       -0.0239
     15 C          63.2716   85.2559   16.0300 C.ar    1  UNL1       -0.0032
     16 C          63.6810   86.6990   16.0326 C.ar    1  UNL1        0.0143
     17 C          64.0986   87.3624   14.7538 C.ar    1  UNL1        0.0500
     18 C          64.1069   86.5829   13.4724 C.ar    1  UNL1        0.0102
     19 C          63.6975   85.1399   13.4697 C.ar    1  UNL1       -0.0227
     20 C          63.6063   84.1244   12.3695 C.3     1  UNL1        0.0535
     21 H          62.2829   79.5896   12.5664 H       1  UNL1        0.1591
     22 C          63.9578   91.2996   15.2328 C.3     1  UNL1        0.1957
     23 N          65.1522   91.7418   14.4405 N.ar    1  UNL1       -0.2706
     24 C          65.1900   91.9771   12.9595 C.ar    1  UNL1        0.3369
     25 O          64.0400   91.8115   12.0108 O.2     1  UNL1       -0.2459
     26 N          66.5798   92.4070   12.5938 N.ar    1  UNL1       -0.2433
     27 C          67.4009   92.4375   13.8488 C.ar    1  UNL1        0.0854
     28 C          68.8379   92.7865   14.0998 C.ar    1  UNL1        0.0192
     29 C          69.3928   92.7244   15.4919 C.ar    1  UNL1        0.0016
     30 C          68.5105   92.3132   16.6333 C.ar    1  UNL1        0.0016
     31 C          67.0734   91.9642   16.3823 C.ar    1  UNL1        0.0188
     32 C          66.5186   92.0264   14.9901 C.ar    1  UNL1        0.0806
     33 C          67.0635   92.7469   11.2152 C.ar    1  UNL1        0.1511
     34 C          68.0775   91.8723   10.5394 C.ar    1  UNL1        0.0375
     35 C          68.5612   92.2121    9.1609 C.ar    1  UNL1        0.0047
     36 C          68.0309   93.4266    8.4581 C.ar    1  UNL1        0.0208
     37 C          67.0169   94.3012    9.1339 C.ar    1  UNL1        0.1005
     38 N          66.5331   93.9613   10.5125 N.ar    1  UNL1       -0.2263
@<TRIPOS>BOND
     1     5     6    1
     2     6     7   am
     3     7     8    2
     4     7     9   am
     5     9    10   am
     6    10    11    2
     7    10    12    1
     8    12    13    1
     9    13    14    1
    10    14    15   ar
    11    15    16   ar
    12    16    17   ar
    13    17     1    1
    14     1     2   am
    15     2     3    2
    16     2    22    1
    17    22    23    1
    18    23    24   ar
    19    24    25    2
    20    24    26   ar
    21    26    33    1
    22    33    34   ar
    23    34    35   ar
    24    35    36   ar
    25    36    37   ar
    26    37    38   ar
    27    26    27   ar
    28    27    28   ar
    29    28    29   ar
    30    29    30   ar
    31    30    31   ar
    32    31    32   ar
    33    17    18   ar
    34    18    19   ar
    35    19    20    1
    36    12     6    1
    37    19    14   ar
    38    20    12    1
    39    32    23   ar
    40    38    33   ar
    41    32    27   ar
    42     9    21    1
    43     1     4    1
@<TRIPOS>MOLECULE
*****
 38 43 0 0 0
SMALL
GASTEIGER

@<TRIPOS>ATOM
      1 N          64.5105   87.9531   14.2430 N.am    1  UNL1       -0.2823
      2 C          63.8728   88.9595   15.1543 C.2     1  UNL1        0.2493
      3 O          62.8212   88.5257   16.1321 O.2     1  UNL1       -0.2727
      4 H          65.2007   88.2379   13.6013 H       1  UNL1        0.1549
      5 C          63.6847   82.6248   10.2307 C.3     1  UNL1        0.1168
      6 N          63.2371   81.6404   11.2703 N.am    1  UNL1       -0.2567
      7 C          62.8758   80.2049   11.0276 C.2     1  UNL1        0.3100
      8 O          62.8986   79.5019    9.7028 O.2     1  UNL1       -0.2522
      9 N          62.4877   79.5960   12.3423 N.am    1  UNL1       -0.2382
     10 C          62.6091   80.6552   13.3975 C.2     1  UNL1        0.2460
     11 O          62.3184   80.4813   14.8588 O.2     1  UNL1       -0.2729
     12 C          63.0723   81.9187   12.7350 C.3     1  UNL1        0.1386
     13 C          62.9075   82.1969   14.1997 C.3     1  UNL1        0.0535
     14 C          63.2688   83.6324   14.4424 C.ar    1  UNL1       -0.0239
     15 C          63.2946   84.4637   15.6907 C.ar    1  UNL1       -0.0032
     16 C          63.7084   85.9039   15.6242 C.ar    1  UNL1        0.0143
     17 C          64.0966   86.5128   14.3095 C.ar    1  UNL1        0.0500
     18 C          64.0709   85.6815   13.0612 C.ar    1  UNL1        0.0102
     19 C          63.6570   84.2413   13.1276 C.ar    1  UNL1       -0.0227
     20 C          63.5355   83.1822   12.0724 C.3     1  UNL1        0.0535
     21 H          62.2032   78.6647   12.4872 H       1  UNL1        0.1591
     22 C          64.2867   90.3998   15.0879 C.3     1  UNL1        0.1957
     23 N          64.4392   91.0757   13.7576 N.ar    1  UNL1       -0.2706
     24 C          65.4391   92.1416   13.4197 C.ar    1  UNL1        0.3369
     25 O          66.4620   92.7187   14.3528 O.2     1  UNL1       -0.2459
     26 N          65.2365   92.5291   11.9848 N.ar    1  UNL1       -0.2433
     27 C          64.1114   91.7027   11.4360 C.ar    1  UNL1        0.0854
     28 C          63.4719   91.6520   10.0801 C.ar    1  UNL1        0.0192
     29 C          62.3398   90.7032    9.8197 C.ar    1  UNL1        0.0016
     30 C          61.8470   89.8049   10.9153 C.ar    1  UNL1        0.0016
     31 C          62.4865   89.8555   12.2713 C.ar    1  UNL1        0.0188
     32 C          63.6187   90.8044   12.5316 C.ar    1  UNL1        0.0806
     33 C          66.0212   93.5617   11.2312 C.ar    1  UNL1        0.1511
     34 C          66.9329   93.1441   10.1156 C.ar    1  UNL1        0.0375
     35 C          67.7176   94.1767    9.3620 C.ar    1  UNL1        0.0047
     36 C          67.5906   95.6268    9.7239 C.ar    1  UNL1        0.0208
     37 C          66.6789   96.0444   10.8394 C.ar    1  UNL1        0.1005
     38 N          65.8942   95.0118   11.5931 N.ar    1  UNL1       -0.2263
@<TRIPOS>BOND
     1     5     6    1
     2     6     7   am
     3     7     8    2
     4     7     9   am
     5     9    10   am
     6    10    11    2
     7    10    12    1
     8    12    13    1
     9    13    14    1
    10    14    15   ar
    11    15    16   ar
    12    16    17   ar
    13    17     1    1
    14     1     2   am
    15     2     3    2
    16     2    22    1
    17    22    23    1
    18    23    24   ar
    19    24    25    2
    20    24    26   ar
    21    26    33    1
    22    33    34   ar
    23    34    35   ar
    24    35    36   ar
    25    36    37   ar
    26    37    38   ar
    27    26    27   ar
    28    27    28   ar
    29    28    29   ar
    30    29    30   ar
    31    30    31   ar
    32    31    32   ar
    33    17    18   ar
    34    18    19   ar
    35    19    20    1
    36    12     6    1
    37    19    14   ar
    38    20    12    1
    39    32    23   ar
    40    38    33   ar
    41    32    27   ar
    42     9    21    1
    43     1     4    1
@<TRIPOS>MOLECULE
*****
 38 43 0 0 0
SMALL
GASTEIGER

@<TRIPOS>ATOM
      1 N          62.2669   88.4434   11.4797 N.am    1  UNL1       -0.2823
      2 C          63.0096   89.0775   12.6181 C.2     1  UNL1        0.2493
      3 O          63.9154   88.2468   13.4781 O.2     1  UNL1       -0.2727
      4 H          61.6724   88.9886   10.9153 H       1  UNL1        0.1549
      5 C          62.3553   82.5491   14.7080 C.3     1  UNL1        0.1168
      6 N          62.5869   81.6588   13.5232 N.am    1  UNL1       -0.2567
      7 C          62.7121   80.1643   13.5546 C.2     1  UNL1        0.3100
      8 O          62.6276   79.2979   14.7761 O.2     1  UNL1       -0.2522
      9 N          62.9365   79.6885   12.1499 N.am    1  UNL1       -0.2382
     10 C          62.9501   80.8888   11.2504 C.2     1  UNL1        0.2460
     11 O          63.1455   80.8740    9.7633 O.2     1  UNL1       -0.2729
     12 C          62.7340   82.1066   12.0992 C.3     1  UNL1        0.1386
     13 C          62.8811   82.5543   10.6752 C.3     1  UNL1        0.0535
     14 C          62.7560   84.0488   10.6439 C.ar    1  UNL1       -0.0239
     15 C          62.8174   85.0378    9.5178 C.ar    1  UNL1       -0.0032
     16 C          62.6544   86.5026    9.7964 C.ar    1  UNL1        0.0143
     17 C          62.4299   86.9784   11.2011 C.ar    1  UNL1        0.0500
     18 C          62.3685   85.9895   12.3272 C.ar    1  UNL1        0.0102
     19 C          62.5315   84.5247   12.0486 C.ar    1  UNL1       -0.0227
     20 C          62.5180   83.3243   12.9480 C.3     1  UNL1        0.0535
     21 H          63.0543   78.7526   11.8678 H       1  UNL1        0.1591
     22 C          62.8466   90.5424   12.8967 C.3     1  UNL1        0.1957
     23 N          63.9918   91.4824   12.6627 N.ar    1  UNL1       -0.2706
     24 C          64.3494   92.1287   11.3572 C.ar    1  UNL1        0.3369
     25 O          63.6245   91.9486   10.0564 O.2     1  UNL1       -0.2459
     26 N          65.5592   92.9868   11.5808 N.ar    1  UNL1       -0.2433
     27 C          65.9493   92.8708   13.0245 C.ar    1  UNL1        0.0854
     28 C          67.0615   93.4917   13.8167 C.ar    1  UNL1        0.0192
     29 C          67.2051   93.1828   15.2775 C.ar    1  UNL1        0.0016
     30 C          66.2364   92.2530   15.9462 C.ar    1  UNL1        0.0016
     31 C          65.1241   91.6321   15.1540 C.ar    1  UNL1        0.0188
     32 C          64.9807   91.9410   13.6932 C.ar    1  UNL1        0.0806
     33 C          66.2565   93.8154   10.5429 C.ar    1  UNL1        0.1511
     34 C          67.3497   93.2121    9.7118 C.ar    1  UNL1        0.0375
     35 C          68.0470   94.0407    8.6739 C.ar    1  UNL1        0.0047
     36 C          67.6509   95.4727    8.4671 C.ar    1  UNL1        0.0208
     37 C          66.5577   96.0760    9.2982 C.ar    1  UNL1        0.1005
     38 N          65.8604   95.2474   10.3361 N.ar    1  UNL1       -0.2263
@<TRIPOS>BOND
     1     5     6    1
     2     6     7   am
     3     7     8    2
     4     7     9   am
     5     9    10   am
     6    10    11    2
     7    10    12    1
     8    12    13    1
     9    13    14    1
    10    14    15   ar
    11    15    16   ar
    12    16    17   ar
    13    17     1    1
    14     1     2   am
    15     2     3    2
    16     2    22    1
    17    22    23    1
    18    23    24   ar
    19    24    25    2
    20    24    26   ar
    21    26    33    1
    22    33    34   ar
    23    34    35   ar
    24    35    36   ar
    25    36    37   ar
    26    37    38   ar
    27    26    27   ar
    28    27    28   ar
    29    28    29   ar
    30    29    30   ar
    31    30    31   ar
    32    31    32   ar
    33    17    18   ar
    34    18    19   ar
    35    19    20    1
    36    12     6    1
    37    19    14   ar
    38    20    12    1
    39    32    23   ar
    40    38    33   ar
    41    32    27   ar
    42     9    21    1
    43     1     4    1
@<TRIPOS>MOLECULE
*****
 38 43 0 0 0
SMALL
GASTEIGER

@<TRIPOS>ATOM
      1 N          58.7999   88.9836    6.8660 N.am    1  UNL1       -0.2823
      2 C          59.5064   89.0027    8.1891 C.2     1  UNL1        0.2493
      3 O          60.4539   90.1183    8.5174 O.2     1  UNL1       -0.2727
      4 H          58.1781   88.2514    6.6506 H       1  UNL1        0.1549
      5 C          63.6952   91.4432    2.9727 C.3     1  UNL1        0.1168
      6 N          62.9250   92.5656    2.3425 N.am    1  UNL1       -0.2567
      7 C          63.4556   93.5426    1.3356 C.2     1  UNL1        0.3100
      8 O          64.8495   93.5688    0.7821 O.2     1  UNL1       -0.2522
      9 N          62.3476   94.4889    0.9794 N.am    1  UNL1       -0.2382
     10 C          61.1322   94.0966    1.7662 C.2     1  UNL1        0.2460
     11 O          59.7948   94.7741    1.7189 O.2     1  UNL1       -0.2729
     12 C          61.4891   92.9080    2.6087 C.3     1  UNL1        0.1386
     13 C          60.0531   93.2503    2.8749 C.3     1  UNL1        0.0535
     14 C          59.5226   92.2733    3.8818 C.ar    1  UNL1       -0.0239
     15 C          58.1737   92.1230    4.5203 C.ar    1  UNL1       -0.0032
     16 C          57.9328   91.0265    5.5151 C.ar    1  UNL1        0.0143
     17 C          59.0408   90.0802    5.8712 C.ar    1  UNL1        0.0500
     18 C          60.3897   90.2305    5.2327 C.ar    1  UNL1        0.0102
     19 C          60.6306   91.3270    4.2380 C.ar    1  UNL1       -0.0227
     20 C          61.8460   91.7193    3.4511 C.3     1  UNL1        0.0535
     21 H          62.4075   95.2362    0.3413 H       1  UNL1        0.1591
     22 C          59.2655   87.9061    9.1839 C.3     1  UNL1        0.1957
     23 N          60.4238   87.1407    9.7516 N.ar    1  UNL1       -0.2706
     24 C          60.9023   87.1907   11.1724 C.ar    1  UNL1        0.3369
     25 O          60.3063   88.0150   12.2749 O.2     1  UNL1       -0.2459
     26 N          62.0812   86.2718   11.2971 N.ar    1  UNL1       -0.2433
     27 C          62.3315   85.6539    9.9534 C.ar    1  UNL1        0.0854
     28 C          63.3597   84.6716    9.4761 C.ar    1  UNL1        0.0192
     29 C          63.3637   84.2262    8.0439 C.ar    1  UNL1        0.0016
     30 C          62.3393   84.7632    7.0886 C.ar    1  UNL1        0.0016
     31 C          61.3110   85.7456    7.5659 C.ar    1  UNL1        0.0188
     32 C          61.3071   86.1909    8.9982 C.ar    1  UNL1        0.0806
     33 C          62.8713   86.0158   12.5462 C.ar    1  UNL1        0.1511
     34 C          62.9769   84.6237   13.0947 C.ar    1  UNL1        0.0375
     35 C          63.7669   84.3677   14.3438 C.ar    1  UNL1        0.0047
     36 C          64.4514   85.5038   15.0444 C.ar    1  UNL1        0.0208
     37 C          64.3458   86.8959   14.4959 C.ar    1  UNL1        0.1005
     38 N          63.5558   87.1519   13.2468 N.ar    1  UNL1       -0.2263
@<TRIPOS>BOND
     1     5     6    1
     2     6     7   am
     3     7     8    2
     4     7     9   am
     5     9    10   am
     6    10    11    2
     7    10    12    1
     8    12    13    1
     9    13    14    1
    10    14    15   ar
    11    15    16   ar
    12    16    17   ar
    13    17     1    1
    14     1     2   am
    15     2     3    2
    16     2    22    1
    17    22    23    1
    18    23    24   ar
    19    24    25    2
    20    24    26   ar
    21    26    33    1
    22    33    34   ar
    23    34    35   ar
    24    35    36   ar
    25    36    37   ar
    26    37    38   ar
    27    26    27   ar
    28    27    28   ar
    29    28    29   ar
    30    29    30   ar
    31    30    31   ar
    32    31    32   ar
    33    17    18   ar
    34    18    19   ar
    35    19    20    1
    36    12     6    1
    37    19    14   ar
    38    20    12    1
    39    32    23   ar
    40    38    33   ar
    41    32    27   ar
    42     9    21    1
    43     1     4    1
@<TRIPOS>MOLECULE
*****
 38 43 0 0 0
SMALL
GASTEIGER

@<TRIPOS>ATOM
      1 N          62.5869   90.4681   12.9322 N.am    1  UNL1       -0.2823
      2 C          63.6718   89.7860   13.7116 C.2     1  UNL1        0.2493
      3 O          63.9443   88.3265   13.4982 O.2     1  UNL1       -0.2727
      4 H          62.4080   91.4261   13.0722 H       1  UNL1        0.1549
      5 C          63.3355   85.7333    8.2212 C.3     1  UNL1        0.1168
      6 N          61.9036   85.6361    7.7850 N.am    1  UNL1       -0.2567
      7 C          61.3662   84.7265    6.7202 C.2     1  UNL1        0.3100
      8 O          62.1663   83.7545    5.9047 O.2     1  UNL1       -0.2522
      9 N          59.8882   84.9596    6.6141 N.am    1  UNL1       -0.2382
     10 C          59.5123   86.0132    7.6133 C.2     1  UNL1        0.2460
     11 O          58.1328   86.5538    7.8477 O.2     1  UNL1       -0.2729
     12 C          60.7578   86.4313    8.3370 C.3     1  UNL1        0.1386
     13 C          59.6120   87.2266    8.8890 C.3     1  UNL1        0.0535
     14 C          60.1494   88.1362    9.9538 C.ar    1  UNL1       -0.0239
     15 C          59.4839   89.1466   10.8404 C.ar    1  UNL1       -0.0032
     16 C          60.2964   89.9239   11.8332 C.ar    1  UNL1        0.0143
     17 C          61.7744   89.6908   11.9393 C.ar    1  UNL1        0.0500
     18 C          62.4399   88.6804   11.0527 C.ar    1  UNL1        0.0102
     19 C          61.6274   87.9031   10.0599 C.ar    1  UNL1       -0.0227
     20 C          62.0034   86.8495    9.0606 C.3     1  UNL1        0.0535
     21 H          59.2730   84.5014    5.9969 H       1  UNL1        0.1591
     22 C          64.4843   90.5633   14.7044 C.3     1  UNL1        0.1957
     23 N          65.3934   91.6601   14.2348 N.ar    1  UNL1       -0.2706
     24 C          65.2854   92.3984   12.9335 C.ar    1  UNL1        0.3369
     25 O          64.2493   92.1694   11.8734 O.2     1  UNL1       -0.2459
     26 N          66.3954   93.4058   12.8786 N.ar    1  UNL1       -0.2433
     27 C          67.1894   93.2901   14.1459 C.ar    1  UNL1        0.0854
     28 C          68.3964   94.0278   14.6450 C.ar    1  UNL1        0.0192
     29 C          68.9841   93.6867   15.9822 C.ar    1  UNL1        0.0016
     30 C          68.3649   92.6078   16.8205 C.ar    1  UNL1        0.0016
     31 C          67.1578   91.8701   16.3214 C.ar    1  UNL1        0.0188
     32 C          66.5702   92.2113   14.9841 C.ar    1  UNL1        0.0806
     33 C          66.6641   94.3611   11.7538 C.ar    1  UNL1        0.1511
     34 C          66.2269   95.7917   11.8642 C.ar    1  UNL1        0.0375
     35 C          66.4957   96.7470   10.7395 C.ar    1  UNL1        0.0047
     36 C          67.2017   96.2717    9.5042 C.ar    1  UNL1        0.0208
     37 C          67.6388   94.8411    9.3938 C.ar    1  UNL1        0.1005
     38 N          67.3701   93.8858   10.5186 N.ar    1  UNL1       -0.2263
@<TRIPOS>BOND
     1     5     6    1
     2     6     7   am
     3     7     8    2
     4     7     9   am
     5     9    10   am
     6    10    11    2
     7    10    12    1
     8    12    13    1
     9    13    14    1
    10    14    15   ar
    11    15    16   ar
    12    16    17   ar
    13    17     1    1
    14     1     2   am
    15     2     3    2
    16     2    22    1
    17    22    23    1
    18    23    24   ar
    19    24    25    2
    20    24    26   ar
    21    26    33    1
    22    33    34   ar
    23    34    35   ar
    24    35    36   ar
    25    36    37   ar
    26    37    38   ar
    27    26    27   ar
    28    27    28   ar
    29    28    29   ar
    30    29    30   ar
    31    30    31   ar
    32    31    32   ar
    33    17    18   ar
    34    18    19   ar
    35    19    20    1
    36    12     6    1
    37    19    14   ar
    38    20    12    1
    39    32    23   ar
    40    38    33   ar
    41    32    27   ar
    42     9    21    1
    43     1     4    1
@<TRIPOS>MOLECULE
*****
 38 43 0 0 0
SMALL
GASTEIGER

@<TRIPOS>ATOM
      1 N          60.2351   90.0644    5.8389 N.am    1  UNL1       -0.2823
      2 C          58.9089   89.6299    6.3888 C.2     1  UNL1        0.2493
      3 O          57.6461   90.2732    5.8975 O.2     1  UNL1       -0.2727
      4 H          61.0639   89.6422    6.1614 H       1  UNL1        0.1549
      5 C          64.5878   92.8419    1.5364 C.3     1  UNL1        0.1168
      6 N          63.6696   93.8612    0.9299 N.am    1  UNL1       -0.2567
      7 C          64.0315   94.8477   -0.1405 C.2     1  UNL1        0.3100
      8 O          65.3751   94.9881   -0.7923 O.2     1  UNL1       -0.2522
      9 N          62.8138   95.6692   -0.4446 N.am    1  UNL1       -0.2382
     10 C          61.6994   95.1903    0.4379 C.2     1  UNL1        0.2460
     11 O          60.3015   95.7335    0.4659 O.2     1  UNL1       -0.2729
     12 C          62.2282   94.0729    1.2874 C.3     1  UNL1        0.1386
     13 C          60.7869   94.2846    1.6449 C.3     1  UNL1        0.0535
     14 C          60.4250   93.2981    2.7153 C.ar    1  UNL1       -0.0239
     15 C          59.1441   93.0417    3.4524 C.ar    1  UNL1       -0.0032
     16 C          59.0808   91.9638    4.4936 C.ar    1  UNL1        0.0143
     17 C          60.2984   91.1424    4.7977 C.ar    1  UNL1        0.0500
     18 C          61.5794   91.3988    4.0606 C.ar    1  UNL1        0.0102
     19 C          61.6427   92.4767    3.0194 C.ar    1  UNL1       -0.0227
     20 C          62.7571   92.9555    2.1369 C.3     1  UNL1        0.0535
     21 H          62.7562   96.3951   -1.1071 H       1  UNL1        0.1591
     22 C          58.8456   88.5519    7.4301 C.3     1  UNL1        0.1957
     23 N          60.0351   88.2813    8.3027 N.ar    1  UNL1       -0.2706
     24 C          60.5313   89.1583    9.4139 C.ar    1  UNL1        0.3369
     25 O          59.9249   90.4600    9.8475 O.2     1  UNL1       -0.2459
     26 N          61.7402   88.5052   10.0154 N.ar    1  UNL1       -0.2433
     27 C          61.9913   87.2244    9.2759 C.ar    1  UNL1        0.0854
     28 C          63.0433   86.1663    9.4297 C.ar    1  UNL1        0.0192
     29 C          63.0416   84.9699    8.5251 C.ar    1  UNL1        0.0016
     30 C          61.9878   84.8315    7.4665 C.ar    1  UNL1        0.0016
     31 C          60.9357   85.8896    7.3128 C.ar    1  UNL1        0.0188
     32 C          60.9375   87.0861    8.2175 C.ar    1  UNL1        0.0806
     33 C          62.5551   89.0390   11.1560 C.ar    1  UNL1        0.1511
     34 C          62.9869   90.4755   11.1615 C.ar    1  UNL1        0.0375
     35 C          63.8018   91.0093   12.3021 C.ar    1  UNL1        0.0047
     36 C          64.1847   90.1066   13.4373 C.ar    1  UNL1        0.0208
     37 C          63.7529   88.6702   13.4318 C.ar    1  UNL1        0.1005
     38 N          62.9380   88.1364   12.2912 N.ar    1  UNL1       -0.2263
@<TRIPOS>BOND
     1     5     6    1
     2     6     7   am
     3     7     8    2
     4     7     9   am
     5     9    10   am
     6    10    11    2
     7    10    12    1
     8    12    13    1
     9    13    14    1
    10    14    15   ar
    11    15    16   ar
    12    16    17   ar
    13    17     1    1
    14     1     2   am
    15     2     3    2
    16     2    22    1
    17    22    23    1
    18    23    24   ar
    19    24    25    2
    20    24    26   ar
    21    26    33    1
    22    33    34   ar
    23    34    35   ar
    24    35    36   ar
    25    36    37   ar
    26    37    38   ar
    27    26    27   ar
    28    27    28   ar
    29    28    29   ar
    30    29    30   ar
    31    30    31   ar
    32    31    32   ar
    33    17    18   ar
    34    18    19   ar
    35    19    20    1
    36    12     6    1
    37    19    14   ar
    38    20    12    1
    39    32    23   ar
    40    38    33   ar
    41    32    27   ar
    42     9    21    1
    43     1     4    1
@<TRIPOS>MOLECULE
*****
 38 43 0 0 0
SMALL
GASTEIGER

@<TRIPOS>ATOM
      1 N          59.1604   89.0140    7.2717 N.am    1  UNL1       -0.2823
      2 C          60.1074   89.0807    8.4330 C.2     1  UNL1        0.2493
      3 O          61.1454   90.1619    8.4931 O.2     1  UNL1       -0.2727
      4 H          58.4791   88.3044    7.2322 H       1  UNL1        0.1549
      5 C          63.6382   91.5746    2.9630 C.3     1  UNL1        0.1168
      6 N          62.7334   92.5464    2.2652 N.am    1  UNL1       -0.2567
      7 C          63.1245   93.4710    1.1507 C.2     1  UNL1        0.3100
      8 O          64.4889   93.5861    0.5383 O.2     1  UNL1       -0.2522
      9 N          61.9115   94.2602    0.7560 N.am    1  UNL1       -0.2382
     10 C          60.7708   93.8234    1.6267 C.2     1  UNL1        0.2460
     11 O          59.3683   94.3529    1.5738 O.2     1  UNL1       -0.2729
     12 C          61.2788   92.7642    2.5594 C.3     1  UNL1        0.1386
     13 C          59.8241   92.9820    2.8536 C.3     1  UNL1        0.0535
     14 C          59.4330   92.0574    3.9682 C.ar    1  UNL1       -0.0239
     15 C          58.1292   91.8322    4.6747 C.ar    1  UNL1       -0.0032
     16 C          58.0383   90.8178    5.7758 C.ar    1  UNL1        0.0143
     17 C          59.2513   90.0285    6.1705 C.ar    1  UNL1        0.0500
     18 C          60.5551   90.2537    5.4640 C.ar    1  UNL1        0.0102
     19 C          60.6460   91.2681    4.3628 C.ar    1  UNL1       -0.0227
     20 C          61.7867   91.7050    3.4921 C.3     1  UNL1        0.0535
     21 H          61.8711   94.9448    0.0496 H       1  UNL1        0.1591
     22 C          60.0165   88.0662    9.5342 C.3     1  UNL1        0.1957
     23 N          61.0437   88.0515   10.6271 N.ar    1  UNL1       -0.2706
     24 C          61.5056   89.2388   11.4190 C.ar    1  UNL1        0.3369
     25 O          61.0213   90.6492   11.2571 O.2     1  UNL1       -0.2459
     26 N          62.5367   88.7680   12.4014 N.ar    1  UNL1       -0.2433
     27 C          62.7122   87.2898   12.2165 C.ar    1  UNL1        0.0854
     28 C          63.5930   86.2897   12.9051 C.ar    1  UNL1        0.0192
     29 C          63.5511   84.8469   12.4972 C.ar    1  UNL1        0.0016
     30 C          62.6283   84.4041   11.4006 C.ar    1  UNL1        0.0016
     31 C          61.7475   85.4042   10.7120 C.ar    1  UNL1        0.0188
     32 C          61.7894   86.8470   11.1200 C.ar    1  UNL1        0.0806
     33 C          63.2647   89.6250   13.3942 C.ar    1  UNL1        0.1511
     34 C          64.3723   90.5270   12.9366 C.ar    1  UNL1        0.0375
     35 C          65.1003   91.3840   13.9294 C.ar    1  UNL1        0.0047
     36 C          64.7205   91.3389   15.3798 C.ar    1  UNL1        0.0208
     37 C          63.6129   90.4369   15.8375 C.ar    1  UNL1        0.1005
     38 N          62.8849   89.5799   14.8447 N.ar    1  UNL1       -0.2263
@<TRIPOS>BOND
     1     5     6    1
     2     6     7   am
     3     7     8    2
     4     7     9   am
     5     9    10   am
     6    10    11    2
     7    10    12    1
     8    12    13    1
     9    13    14    1
    10    14    15   ar
    11    15    16   ar
    12    16    17   ar
    13    17     1    1
    14     1     2   am
    15     2     3    2
    16     2    22    1
    17    22    23    1
    18    23    24   ar
    19    24    25    2
    20    24    26   ar
    21    26    33    1
    22    33    34   ar
    23    34    35   ar
    24    35    36   ar
    25    36    37   ar
    26    37    38   ar
    27    26    27   ar
    28    27    28   ar
    29    28    29   ar
    30    29    30   ar
    31    30    31   ar
    32    31    32   ar
    33    17    18   ar
    34    18    19   ar
    35    19    20    1
    36    12     6    1
    37    19    14   ar
    38    20    12    1
    39    32    23   ar
    40    38    33   ar
    41    32    27   ar
    42     9    21    1
    43     1     4    1
@<TRIPOS>MOLECULE
*****
 38 43 0 0 0
SMALL
GASTEIGER

@<TRIPOS>ATOM
      1 N          58.8719   89.2335    6.9642 N.am    1  UNL1       -0.2823
      2 C          59.7144   89.2260    8.2051 C.2     1  UNL1        0.2493
      3 O          60.8105   90.2362    8.3736 O.2     1  UNL1       -0.2727
      4 H          58.1525   88.5705    6.8536 H       1  UNL1        0.1549
      5 C          63.7988   91.3524    2.9136 C.3     1  UNL1        0.1168
      6 N          63.0407   92.4321    2.1998 N.am    1  UNL1       -0.2567
      7 C          63.5827   93.3269    1.1248 C.2     1  UNL1        0.3100
      8 O          64.9780   93.2991    0.5749 O.2     1  UNL1       -0.2522
      9 N          62.4844   94.2544    0.6963 N.am    1  UNL1       -0.2382
     10 C          61.2637   93.9327    1.5065 C.2     1  UNL1        0.2460
     11 O          59.9328   94.6172    1.4052 O.2     1  UNL1       -0.2729
     12 C          61.6074   92.8065    2.4357 C.3     1  UNL1        0.1386
     13 C          60.1742   93.1809    2.6716 C.3     1  UNL1        0.0535
     14 C          59.6322   92.2861    3.7466 C.ar    1  UNL1       -0.0239
     15 C          58.2805   92.1961    4.3906 C.ar    1  UNL1       -0.0032
     16 C          58.0271   91.1785    5.4631 C.ar    1  UNL1        0.0143
     17 C          59.1254   90.2511    5.8916 C.ar    1  UNL1        0.0500
     18 C          60.4770   90.3411    5.2476 C.ar    1  UNL1        0.0102
     19 C          60.7305   91.3587    4.1751 C.ar    1  UNL1       -0.0227
     20 C          61.9512   91.6803    3.3649 C.3     1  UNL1        0.0535
     21 H          62.5528   94.9517    0.0048 H       1  UNL1        0.1591
     22 C          59.4609   88.2085    9.2777 C.3     1  UNL1        0.1957
     23 N          60.6072   87.6501   10.0678 N.ar    1  UNL1       -0.2706
     24 C          61.1256   86.2443    9.9960 C.ar    1  UNL1        0.3369
     25 O          60.5888   85.1501    9.1217 O.2     1  UNL1       -0.2459
     26 N          62.2752   86.1248   10.9522 N.ar    1  UNL1       -0.2433
     27 C          62.4672   87.4568   11.6149 C.ar    1  UNL1        0.0854
     28 C          63.4476   87.9331   12.6454 C.ar    1  UNL1        0.0192
     29 C          63.3972   89.3519   13.1294 C.ar    1  UNL1        0.0016
     30 C          62.3663   90.2946   12.5828 C.ar    1  UNL1        0.0016
     31 C          61.3859   89.8183   11.5522 C.ar    1  UNL1        0.0188
     32 C          61.4364   88.3994   11.0682 C.ar    1  UNL1        0.0806
     33 C          63.0896   84.8902   11.2019 C.ar    1  UNL1        0.1511
     34 C          63.5937   84.0778   10.0461 C.ar    1  UNL1        0.0375
     35 C          64.4082   82.8432   10.2957 C.ar    1  UNL1        0.0047
     36 C          64.7186   82.4210   11.7012 C.ar    1  UNL1        0.0208
     37 C          64.2146   83.2334   12.8570 C.ar    1  UNL1        0.1005
     38 N          63.4001   84.4680   12.6074 N.ar    1  UNL1       -0.2263
@<TRIPOS>BOND
     1     5     6    1
     2     6     7   am
     3     7     8    2
     4     7     9   am
     5     9    10   am
     6    10    11    2
     7    10    12    1
     8    12    13    1
     9    13    14    1
    10    14    15   ar
    11    15    16   ar
    12    16    17   ar
    13    17     1    1
    14     1     2   am
    15     2     3    2
    16     2    22    1
    17    22    23    1
    18    23    24   ar
    19    24    25    2
    20    24    26   ar
    21    26    33    1
    22    33    34   ar
    23    34    35   ar
    24    35    36   ar
    25    36    37   ar
    26    37    38   ar
    27    26    27   ar
    28    27    28   ar
    29    28    29   ar
    30    29    30   ar
    31    30    31   ar
    32    31    32   ar
    33    17    18   ar
    34    18    19   ar
    35    19    20    1
    36    12     6    1
    37    19    14   ar
    38    20    12    1
    39    32    23   ar
    40    38    33   ar
    41    32    27   ar
    42     9    21    1
    43     1     4    1
