@<TRIPOS>MOLECULE
*****
 43 46 0 0 0
SMALL
GASTEIGER

@<TRIPOS>ATOM
      1 C          63.1177   87.9774   17.2662 C.3     1  UNL1        0.0038
      2 C          63.0466   86.5697   16.7533 C.3     1  UNL1        0.0473
      3 C          64.1093   86.0536   15.8288 C.3     1  UNL1        0.2054
      4 O          64.2308   86.6098   14.4411 O.3     1  UNL1       -0.4755
      5 C          63.5102   85.9500   13.3030 C.ar    1  UNL1        0.1386
      6 C          62.8048   86.7859   12.2765 C.ar    1  UNL1        0.0369
      7 C          62.0842   86.1260   11.1383 C.ar    1  UNL1        0.0031
      8 C          62.0690   84.6303   11.0267 C.ar    1  UNL1        0.0002
      9 C          62.7744   83.7943   12.0532 C.ar    1  UNL1        0.0031
     10 C          63.4950   84.4542   13.1913 C.ar    1  UNL1        0.0369
     11 C          62.7592   82.2985   11.9415 C.ar    1  UNL1        0.0032
     12 C          62.3589   81.4624   13.1207 C.ar    1  UNL1        0.0207
     13 C          62.3437   79.9667   13.0090 C.ar    1  UNL1        0.0989
     14 N          62.7289   79.3071   11.7180 N.ar    1  UNL1       -0.2423
     15 C          63.1292   80.1432   10.5388 C.ar    1  UNL1        0.0989
     16 C          63.1444   81.6389   10.6505 C.ar    1  UNL1        0.0207
     17 C          61.3788   86.9619   10.1119 C.ar    1  UNL1        0.0032
     18 C          61.4210   88.4584   10.2055 C.ar    1  UNL1        0.0207
     19 C          60.7156   89.2943    9.1791 C.ar    1  UNL1        0.0989
     20 N          59.9679   88.6337    8.0589 N.ar    1  UNL1       -0.2423
     21 C          59.9257   87.1373    7.9653 C.ar    1  UNL1        0.0989
     22 C          60.6311   86.3013    8.9918 C.ar    1  UNL1        0.0207
     23 C          62.6178   89.1102   16.4195 C.3     1  UNL1        0.0005
     24 C          63.5912   90.0621   15.7897 C.3     1  UNL1        0.0047
     25 C          64.3434   89.6587   14.5563 C.3     1  UNL1        0.0261
     26 C          65.3925   92.7250   12.2656 C.ar    1  UNL1        0.1342
     27 C          64.5681   92.4591   11.0410 C.ar    1  UNL1        0.0365
     28 C          63.6688   91.2598   10.9882 C.ar    1  UNL1        0.0028
     29 C          63.5939   90.3263   12.1599 C.ar    1  UNL1       -0.0044
     30 C          64.4183   90.5922   13.3845 C.ar    1  UNL1       -0.0232
     31 C          65.3176   91.7916   13.4373 C.ar    1  UNL1        0.0082
     32 C          66.1420   92.0574   14.6620 C.3     1  UNL1        0.0350
     33 C          67.5918   91.6734   14.6880 C.3     1  UNL1        0.0465
     34 C          68.6362   92.7069   14.9894 C.2     1  UNL1        0.0507
     35 O          68.3567   93.7847   15.9946 O.co2   1  UNL1       -0.5492
     36 O          69.9601   92.6628   14.2856 O.co2   1  UNL1       -0.5492
     37 O          66.2918   93.9244   12.3184 O.3     1  UNL1       -0.4758
     38 C          66.2349   94.9531   11.2282 C.3     1  UNL1        0.2058
     39 C          66.4941   94.5536    9.8059 C.3     1  UNL1        0.0532
     40 C          67.8950   94.2717    9.3494 C.3     1  UNL1        0.0455
     41 O          68.7452   92.1389    8.1336 O.co2   1  UNL1       -0.5492
     42 C          68.4346   92.8732    9.4042 C.2     1  UNL1        0.0505
     43 O          68.6635   92.2090   10.7294 O.co2   1  UNL1       -0.5492
@<TRIPOS>UNITY_ATOM_ATTR
35 1
charge -1
41 1
charge -1
@<TRIPOS>BOND
     1    41    42   ar
     2    42    43   ar
     3    42    40    1
     4    40    39    1
     5    39    38    1
     6    38    37    1
     7    37    26    1
     8    26    27   ar
     9    27    28   ar
    10    28    29   ar
    11    29    30   ar
    12    30    25    1
    13    25    24    1
    14    24    23    1
    15    23     1    1
    16     1     2    1
    17     2     3    1
    18     3     4    1
    19     4     5    1
    20     5     6   ar
    21     6     7   ar
    22     7    17    1
    23    17    18   ar
    24    18    19   ar
    25    19    20   ar
    26    20    21   ar
    27    21    22   ar
    28     7     8   ar
    29     8     9   ar
    30     9    11    1
    31    11    12   ar
    32    12    13   ar
    33    13    14   ar
    34    14    15   ar
    35    15    16   ar
    36     9    10   ar
    37    30    31   ar
    38    31    32    1
    39    32    33    1
    40    33    34    1
    41    34    35   ar
    42    34    36   ar
    43    31    26   ar
    44    10     5   ar
    45    22    17   ar
    46    16    11   ar
@<TRIPOS>MOLECULE
*****
 43 46 0 0 0
SMALL
GASTEIGER

@<TRIPOS>ATOM
      1 C          63.1544   88.3248   17.1775 C.3     1  UNL1        0.0038
      2 C          63.0952   86.8948   16.7283 C.3     1  UNL1        0.0473
      3 C          64.1466   86.3546   15.8048 C.3     1  UNL1        0.2054
      4 O          64.2448   86.8671   14.3986 O.3     1  UNL1       -0.4755
      5 C          63.5057   86.1722   13.2938 C.ar    1  UNL1        0.1386
      6 C          63.4926   84.6737   13.2268 C.ar    1  UNL1        0.0369
      7 C          62.7534   83.9788   12.1219 C.ar    1  UNL1        0.0031
      8 C          62.0273   84.7823   11.0841 C.ar    1  UNL1        0.0002
      9 C          62.0403   86.2807   11.1511 C.ar    1  UNL1        0.0031
     10 C          62.7794   86.9757   12.2559 C.ar    1  UNL1        0.0369
     11 C          61.3140   87.0843   10.1133 C.ar    1  UNL1        0.0032
     12 C          61.2837   88.5808   10.2092 C.ar    1  UNL1        0.0207
     13 C          60.5575   89.3843    9.1713 C.ar    1  UNL1        0.0989
     14 N          59.8617   88.6911    8.0376 N.ar    1  UNL1       -0.2423
     15 C          59.8920   87.1945    7.9417 C.ar    1  UNL1        0.0989
     16 C          60.6182   86.3911    8.9796 C.ar    1  UNL1        0.0207
     17 C          62.7404   82.4804   12.0549 C.ar    1  UNL1        0.0032
     18 C          63.1212   81.7832   10.7824 C.ar    1  UNL1        0.0207
     19 C          63.1082   80.2847   10.7154 C.ar    1  UNL1        0.0989
     20 N          62.7144   79.4835   11.9208 N.ar    1  UNL1       -0.2423
     21 C          62.3336   80.1806   13.1931 C.ar    1  UNL1        0.0989
     22 C          62.3466   81.6791   13.2602 C.ar    1  UNL1        0.0207
     23 C          62.7941   89.4257   16.2246 C.3     1  UNL1        0.0005
     24 C          63.8240   90.4419   15.8286 C.3     1  UNL1        0.0047
     25 C          64.8106   90.1264   14.7438 C.3     1  UNL1        0.0261
     26 C          65.7536   92.3626   11.6036 C.ar    1  UNL1        0.1342
     27 C          64.5206   92.2065   10.7639 C.ar    1  UNL1        0.0365
     28 C          63.3842   91.3570   11.2508 C.ar    1  UNL1        0.0028
     29 C          63.4808   90.6637   12.5774 C.ar    1  UNL1       -0.0044
     30 C          64.7139   90.8198   13.4171 C.ar    1  UNL1       -0.0232
     31 C          65.8503   91.6692   12.9302 C.ar    1  UNL1        0.0082
     32 C          67.0834   91.8253   13.7700 C.3     1  UNL1        0.0350
     33 C          67.1408   92.8870   14.8280 C.3     1  UNL1        0.0465
     34 C          68.4672   93.4026   15.3020 C.2     1  UNL1        0.0507
     35 O          69.7365   92.8544   14.7200 O.co2   1  UNL1       -0.5492
     36 O          68.5246   94.4663   16.3581 O.co2   1  UNL1       -0.5492
     37 O          66.8900   93.2120   11.1168 O.3     1  UNL1       -0.4758
     38 C          67.0099   93.5399    9.6580 C.3     1  UNL1        0.2058
     39 C          67.6401   94.8317    9.2289 C.3     1  UNL1        0.0532
     40 C          67.3660   96.0912    9.9962 C.3     1  UNL1        0.0455
     41 O          64.8097   96.4867    9.7534 O.co2   1  UNL1       -0.5492
     42 C          66.0203   96.3106   10.6215 C.2     1  UNL1        0.0505
     43 O          65.8852   96.3540   12.1147 O.co2   1  UNL1       -0.5492
@<TRIPOS>UNITY_ATOM_ATTR
35 1
charge -1
41 1
charge -1
@<TRIPOS>BOND
     1    41    42   ar
     2    42    43   ar
     3    42    40    1
     4    40    39    1
     5    39    38    1
     6    38    37    1
     7    37    26    1
     8    26    27   ar
     9    27    28   ar
    10    28    29   ar
    11    29    30   ar
    12    30    25    1
    13    25    24    1
    14    24    23    1
    15    23     1    1
    16     1     2    1
    17     2     3    1
    18     3     4    1
    19     4     5    1
    20     5     6   ar
    21     6     7   ar
    22     7    17    1
    23    17    18   ar
    24    18    19   ar
    25    19    20   ar
    26    20    21   ar
    27    21    22   ar
    28     7     8   ar
    29     8     9   ar
    30     9    11    1
    31    11    12   ar
    32    12    13   ar
    33    13    14   ar
    34    14    15   ar
    35    15    16   ar
    36     9    10   ar
    37    30    31   ar
    38    31    32    1
    39    32    33    1
    40    33    34    1
    41    34    35   ar
    42    34    36   ar
    43    31    26   ar
    44    10     5   ar
    45    22    17   ar
    46    16    11   ar
@<TRIPOS>MOLECULE
*****
 43 46 0 0 0
SMALL
GASTEIGER

@<TRIPOS>ATOM
      1 C          63.1945   87.3651   16.4597 C.3     1  UNL1        0.0038
      2 C          63.2476   88.7210   17.0990 C.3     1  UNL1        0.0473
      3 C          63.1502   89.9545   16.2509 C.3     1  UNL1        0.2054
      4 O          64.3387   90.4181   15.4621 O.3     1  UNL1       -0.4755
      5 C          64.2129   90.6566   13.9866 C.ar    1  UNL1        0.1386
      6 C          63.1800   89.9136   13.1922 C.ar    1  UNL1        0.0369
      7 C          63.0542   90.1520   11.7166 C.ar    1  UNL1        0.0031
      8 C          63.9613   91.1334   11.0354 C.ar    1  UNL1        0.0002
      9 C          64.9942   91.8765   11.8298 C.ar    1  UNL1        0.0031
     10 C          65.1200   91.6380   13.3054 C.ar    1  UNL1        0.0369
     11 C          65.9013   92.8579   11.1486 C.ar    1  UNL1        0.0032
     12 C          65.7683   94.3246   11.4332 C.ar    1  UNL1        0.0207
     13 C          66.6753   95.3060   10.7520 C.ar    1  UNL1        0.0989
     14 N          67.7154   94.8207    9.7862 N.ar    1  UNL1       -0.2423
     15 C          67.8483   93.3540    9.5016 C.ar    1  UNL1        0.0989
     16 C          66.9413   92.3726   10.1828 C.ar    1  UNL1        0.0207
     17 C          62.0213   89.4090   10.9222 C.ar    1  UNL1        0.0032
     18 C          61.1537   90.1457    9.9451 C.ar    1  UNL1        0.0207
     19 C          60.1208   89.4027    9.1507 C.ar    1  UNL1        0.0989
     20 N          59.9556   87.9230    9.3334 N.ar    1  UNL1       -0.2423
     21 C          60.8232   87.1864   10.3104 C.ar    1  UNL1        0.0989
     22 C          61.8561   87.9294   11.1048 C.ar    1  UNL1        0.0207
     23 C          62.4655   86.2438   17.1387 C.3     1  UNL1        0.0005
     24 C          62.5157   84.8594   16.5634 C.3     1  UNL1        0.0047
     25 C          61.6645   84.5080   15.3794 C.3     1  UNL1        0.0261
     26 C          63.5389   82.8576   12.2950 C.ar    1  UNL1        0.1342
     27 C          63.0878   81.4324   12.4188 C.ar    1  UNL1        0.0365
     28 C          62.1623   81.0324   13.5293 C.ar    1  UNL1        0.0028
     29 C          61.6879   82.0576   14.5162 C.ar    1  UNL1       -0.0044
     30 C          62.1390   83.4827   14.3925 C.ar    1  UNL1       -0.0232
     31 C          63.0645   83.8828   13.2819 C.ar    1  UNL1        0.0082
     32 C          63.5156   85.3080   13.1582 C.3     1  UNL1        0.0350
     33 C          64.5981   85.8325   14.0543 C.3     1  UNL1        0.0465
     34 C          65.6005   84.8895   14.6507 C.2     1  UNL1        0.0507
     35 O          67.0607   85.2322   14.6247 O.co2   1  UNL1       -0.5492
     36 O          65.1429   83.6037   15.2731 O.co2   1  UNL1       -0.5492
     37 O          64.4644   83.2577   11.1844 O.3     1  UNL1       -0.4758
     38 C          63.9328   83.4380    9.7935 C.3     1  UNL1        0.2058
     39 C          63.1031   84.6417    9.4579 C.3     1  UNL1        0.0532
     40 C          63.1811   85.2482    8.0881 C.3     1  UNL1        0.0455
     41 O          60.6669   85.3351    7.4391 O.co2   1  UNL1       -0.5492
     42 C          62.0869   84.9972    7.0933 C.2     1  UNL1        0.0505
     43 O          62.4126   84.4084    5.7528 O.co2   1  UNL1       -0.5492
@<TRIPOS>UNITY_ATOM_ATTR
35 1
charge -1
41 1
charge -1
@<TRIPOS>BOND
     1    41    42   ar
     2    42    43   ar
     3    42    40    1
     4    40    39    1
     5    39    38    1
     6    38    37    1
     7    37    26    1
     8    26    27   ar
     9    27    28   ar
    10    28    29   ar
    11    29    30   ar
    12    30    25    1
    13    25    24    1
    14    24    23    1
    15    23     1    1
    16     1     2    1
    17     2     3    1
    18     3     4    1
    19     4     5    1
    20     5     6   ar
    21     6     7   ar
    22     7    17    1
    23    17    18   ar
    24    18    19   ar
    25    19    20   ar
    26    20    21   ar
    27    21    22   ar
    28     7     8   ar
    29     8     9   ar
    30     9    11    1
    31    11    12   ar
    32    12    13   ar
    33    13    14   ar
    34    14    15   ar
    35    15    16   ar
    36     9    10   ar
    37    30    31   ar
    38    31    32    1
    39    32    33    1
    40    33    34    1
    41    34    35   ar
    42    34    36   ar
    43    31    26   ar
    44    10     5   ar
    45    22    17   ar
    46    16    11   ar
@<TRIPOS>MOLECULE
*****
 43 46 0 0 0
SMALL
GASTEIGER

@<TRIPOS>ATOM
      1 C          59.6382   90.0243    5.8953 C.3     1  UNL1        0.0038
      2 C          59.2557   89.0811    6.9970 C.3     1  UNL1        0.0473
      3 C          60.0843   89.0106    8.2455 C.3     1  UNL1        0.2054
      4 O          59.9520   87.8353    9.1680 O.3     1  UNL1       -0.4755
      5 C          61.0047   87.5727   10.2038 C.ar    1  UNL1        0.1386
      6 C          61.3243   86.1640   10.6080 C.ar    1  UNL1        0.0369
      7 C          62.3770   85.9014   11.6438 C.ar    1  UNL1        0.0031
      8 C          63.1101   87.0476   12.2754 C.ar    1  UNL1        0.0002
      9 C          62.7904   88.4563   11.8713 C.ar    1  UNL1        0.0031
     10 C          61.7378   88.7189   10.8355 C.ar    1  UNL1        0.0369
     11 C          63.5236   89.6024   12.5029 C.ar    1  UNL1        0.0032
     12 C          63.7576   90.8632   11.7247 C.ar    1  UNL1        0.0207
     13 C          64.4907   92.0093   12.3564 C.ar    1  UNL1        0.0989
     14 N          64.9897   91.8946   13.7663 N.ar    1  UNL1       -0.2423
     15 C          64.7557   90.6338   14.5445 C.ar    1  UNL1        0.0989
     16 C          64.0226   89.4878   13.9128 C.ar    1  UNL1        0.0207
     17 C          62.6967   84.4927   12.0480 C.ar    1  UNL1        0.0032
     18 C          62.6348   84.0946   13.4929 C.ar    1  UNL1        0.0207
     19 C          62.9544   82.6859   13.8971 C.ar    1  UNL1        0.0989
     20 N          63.3359   81.6753   12.8563 N.ar    1  UNL1       -0.2423
     21 C          63.3977   82.0734   11.4114 C.ar    1  UNL1        0.0989
     22 C          63.0781   83.4821   11.0073 C.ar    1  UNL1        0.0207
     23 C          58.6256   90.9839    5.3442 C.3     1  UNL1        0.0005
     24 C          59.0711   92.2946    4.7664 C.3     1  UNL1        0.0047
     25 C          59.3698   92.4052    3.3006 C.3     1  UNL1        0.0261
     26 C          62.5238   93.9314    1.4369 C.ar    1  UNL1        0.1342
     27 C          63.6061   93.0052    1.9065 C.ar    1  UNL1        0.0365
     28 C          63.2764   91.8789    2.8408 C.ar    1  UNL1        0.0028
     29 C          61.8643   91.6789    3.3055 C.ar    1  UNL1       -0.0044
     30 C          60.7819   92.6052    2.8359 C.ar    1  UNL1       -0.0232
     31 C          61.1117   93.7314    1.9016 C.ar    1  UNL1        0.0082
     32 C          60.0292   94.6577    1.4320 C.3     1  UNL1        0.0350
     33 C          59.3812   94.4383    0.0971 C.3     1  UNL1        0.0465
     34 C          58.7569   93.1129   -0.2247 C.2     1  UNL1        0.0507
     35 O          59.6230   91.9048   -0.4258 O.co2   1  UNL1       -0.5492
     36 O          57.2663   92.9955   -0.3453 O.co2   1  UNL1       -0.5492
     37 O          62.8535   95.0576    0.5026 O.3     1  UNL1       -0.4758
     38 C          62.8231   94.8352   -0.9804 C.3     1  UNL1        0.2058
     39 C          62.5500   93.4656   -1.5279 C.3     1  UNL1        0.0532
     40 C          62.7263   93.1946   -2.9927 C.3     1  UNL1        0.0455
     41 O          64.8964   92.4380   -4.2045 O.co2   1  UNL1       -0.5492
     42 C          64.0228   93.5327   -3.6672 C.2     1  UNL1        0.0505
     43 O          64.4456   94.9653   -3.8044 O.co2   1  UNL1       -0.5492
@<TRIPOS>UNITY_ATOM_ATTR
35 1
charge -1
41 1
charge -1
@<TRIPOS>BOND
     1    41    42   ar
     2    42    43   ar
     3    42    40    1
     4    40    39    1
     5    39    38    1
     6    38    37    1
     7    37    26    1
     8    26    27   ar
     9    27    28   ar
    10    28    29   ar
    11    29    30   ar
    12    30    25    1
    13    25    24    1
    14    24    23    1
    15    23     1    1
    16     1     2    1
    17     2     3    1
    18     3     4    1
    19     4     5    1
    20     5     6   ar
    21     6     7   ar
    22     7    17    1
    23    17    18   ar
    24    18    19   ar
    25    19    20   ar
    26    20    21   ar
    27    21    22   ar
    28     7     8   ar
    29     8     9   ar
    30     9    11    1
    31    11    12   ar
    32    12    13   ar
    33    13    14   ar
    34    14    15   ar
    35    15    16   ar
    36     9    10   ar
    37    30    31   ar
    38    31    32    1
    39    32    33    1
    40    33    34    1
    41    34    35   ar
    42    34    36   ar
    43    31    26   ar
    44    10     5   ar
    45    22    17   ar
    46    16    11   ar
@<TRIPOS>MOLECULE
*****
 43 46 0 0 0
SMALL
GASTEIGER

@<TRIPOS>ATOM
      1 C          63.1481   88.0183   17.1055 C.3     1  UNL1        0.0038
      2 C          63.4547   86.7542   16.3586 C.3     1  UNL1        0.0473
      3 C          64.4288   86.7744   15.2180 C.3     1  UNL1        0.2054
      4 O          63.9908   87.2544   13.8661 O.3     1  UNL1       -0.4755
      5 C          63.2770   86.3209   12.9339 C.ar    1  UNL1        0.1386
      6 C          63.3152   84.8416   13.1792 C.ar    1  UNL1        0.0369
      7 C          62.6013   83.9081   12.2468 C.ar    1  UNL1        0.0031
      8 C          61.8494   84.4539   11.0693 C.ar    1  UNL1        0.0002
      9 C          61.8112   85.9332   10.8241 C.ar    1  UNL1        0.0031
     10 C          62.5250   86.8667   11.7563 C.ar    1  UNL1        0.0369
     11 C          61.0592   86.4791    9.6465 C.ar    1  UNL1        0.0032
     12 C          60.2665   87.7450    9.7841 C.ar    1  UNL1        0.0207
     13 C          59.5146   88.2908    8.6065 C.ar    1  UNL1        0.0989
     14 N          59.5553   87.5706    7.2914 N.ar    1  UNL1       -0.2423
     15 C          60.3480   86.3047    7.1537 C.ar    1  UNL1        0.0989
     16 C          61.1000   85.7589    8.3313 C.ar    1  UNL1        0.0207
     17 C          62.6395   82.4288   12.4921 C.ar    1  UNL1        0.0032
     18 C          62.4788   81.8950   13.8848 C.ar    1  UNL1        0.0207
     19 C          62.5170   80.4157   14.1300 C.ar    1  UNL1        0.0989
     20 N          62.7159   79.4701   12.9827 N.ar    1  UNL1       -0.2423
     21 C          62.8766   80.0039   11.5901 C.ar    1  UNL1        0.0989
     22 C          62.8384   81.4832   11.3448 C.ar    1  UNL1        0.0207
     23 C          62.6981   89.2395   16.3600 C.3     1  UNL1        0.0005
     24 C          63.6583   90.3659   16.1165 C.3     1  UNL1        0.0047
     25 C          64.7133   90.2366   15.0580 C.3     1  UNL1        0.0261
     26 C          65.6708   93.0333   12.4101 C.ar    1  UNL1        0.1342
     27 C          66.5435   93.9250   13.2427 C.ar    1  UNL1        0.0365
     28 C          66.8061   93.5873   14.6804 C.ar    1  UNL1        0.0028
     29 C          66.1961   92.3578   15.2855 C.ar    1  UNL1       -0.0044
     30 C          65.3234   91.4661   14.4529 C.ar    1  UNL1       -0.0232
     31 C          65.0608   91.8039   13.0153 C.ar    1  UNL1        0.0082
     32 C          64.1880   90.9121   12.1827 C.3     1  UNL1        0.0350
     33 C          62.6988   90.9429   12.3595 C.3     1  UNL1        0.0465
     34 C          61.7999   90.5841   11.2135 C.2     1  UNL1        0.0507
     35 O          60.3768   90.1868   11.4725 O.co2   1  UNL1       -0.5492
     36 O          62.3240   90.6225    9.8086 O.co2   1  UNL1       -0.5492
     37 O          65.4082   93.3711   10.9725 O.3     1  UNL1       -0.4758
     38 C          65.7791   94.7234   10.4399 C.3     1  UNL1        0.2058
     39 C          66.7864   94.8438    9.3349 C.3     1  UNL1        0.0532
     40 C          68.1814   94.3289    9.5323 C.3     1  UNL1        0.0455
     41 O          68.6095   92.2253    8.0688 O.co2   1  UNL1       -0.5492
     42 C          68.4614   92.8596    9.4201 C.2     1  UNL1        0.0505
     43 O          68.5933   92.0245   10.6591 O.co2   1  UNL1       -0.5492
@<TRIPOS>UNITY_ATOM_ATTR
35 1
charge -1
41 1
charge -1
@<TRIPOS>BOND
     1    41    42   ar
     2    42    43   ar
     3    42    40    1
     4    40    39    1
     5    39    38    1
     6    38    37    1
     7    37    26    1
     8    26    27   ar
     9    27    28   ar
    10    28    29   ar
    11    29    30   ar
    12    30    25    1
    13    25    24    1
    14    24    23    1
    15    23     1    1
    16     1     2    1
    17     2     3    1
    18     3     4    1
    19     4     5    1
    20     5     6   ar
    21     6     7   ar
    22     7    17    1
    23    17    18   ar
    24    18    19   ar
    25    19    20   ar
    26    20    21   ar
    27    21    22   ar
    28     7     8   ar
    29     8     9   ar
    30     9    11    1
    31    11    12   ar
    32    12    13   ar
    33    13    14   ar
    34    14    15   ar
    35    15    16   ar
    36     9    10   ar
    37    30    31   ar
    38    31    32    1
    39    32    33    1
    40    33    34    1
    41    34    35   ar
    42    34    36   ar
    43    31    26   ar
    44    10     5   ar
    45    22    17   ar
    46    16    11   ar
@<TRIPOS>MOLECULE
*****
 43 46 0 0 0
SMALL
GASTEIGER

@<TRIPOS>ATOM
      1 C          59.5898   89.9954    5.9401 C.3     1  UNL1        0.0038
      2 C          59.1557   89.0803    7.0465 C.3     1  UNL1        0.0473
      3 C          60.0330   88.8872    8.2478 C.3     1  UNL1        0.2054
      4 O          60.1943   87.5217    8.8471 O.3     1  UNL1       -0.4755
      5 C          61.1474   87.3102    9.9859 C.ar    1  UNL1        0.1386
      6 C          61.8254   88.4859   10.6247 C.ar    1  UNL1        0.0369
      7 C          62.7785   88.2743   11.7635 C.ar    1  UNL1        0.0031
      8 C          63.0536   86.8872   12.2634 C.ar    1  UNL1        0.0002
      9 C          62.3756   85.7115   11.6246 C.ar    1  UNL1        0.0031
     10 C          61.4225   85.9229   10.4859 C.ar    1  UNL1        0.0369
     11 C          62.6508   84.3242   12.1247 C.ar    1  UNL1        0.0032
     12 C          62.5951   84.0321   13.5949 C.ar    1  UNL1        0.0207
     13 C          62.8702   82.6449   14.0948 C.ar    1  UNL1        0.0989
     14 N          63.2010   81.5499   13.1246 N.ar    1  UNL1       -0.2423
     15 C          63.2567   81.8420   11.6544 C.ar    1  UNL1        0.0989
     16 C          62.9816   83.2292   11.1544 C.ar    1  UNL1        0.0207
     17 C          63.4565   89.4500   12.4023 C.ar    1  UNL1        0.0032
     18 C          63.6200   90.7291   11.6358 C.ar    1  UNL1        0.0207
     19 C          64.2980   91.9048   12.2746 C.ar    1  UNL1        0.0989
     20 N          64.8125   91.8014   13.6799 N.ar    1  UNL1       -0.2423
     21 C          64.6490   90.5224   14.4463 C.ar    1  UNL1        0.0989
     22 C          63.9710   89.3467   13.8075 C.ar    1  UNL1        0.0207
     23 C          58.6298   91.0025    5.3797 C.3     1  UNL1        0.0005
     24 C          59.1399   92.3068    4.8423 C.3     1  UNL1        0.0047
     25 C          59.4244   92.4543    3.3769 C.3     1  UNL1        0.0261
     26 C          62.6167   93.8301    1.4621 C.ar    1  UNL1        0.1342
     27 C          63.6681   92.8730    1.9398 C.ar    1  UNL1        0.0365
     28 C          63.3050   91.7762    2.8965 C.ar    1  UNL1        0.0028
     29 C          61.8905   91.6366    3.3756 C.ar    1  UNL1       -0.0044
     30 C          60.8390   92.5938    2.8979 C.ar    1  UNL1       -0.0232
     31 C          61.2021   93.6906    1.9412 C.ar    1  UNL1        0.0082
     32 C          60.1506   94.6478    1.4635 C.3     1  UNL1        0.0350
     33 C          59.5009   94.4425    0.1272 C.3     1  UNL1        0.0465
     34 C          59.0174   93.0793   -0.2702 C.2     1  UNL1        0.0507
     35 O          59.9962   91.9542   -0.4324 O.co2   1  UNL1       -0.5492
     36 O          57.5553   92.8412   -0.5055 O.co2   1  UNL1       -0.5492
     37 O          62.9798   94.9269    0.5054 O.3     1  UNL1       -0.4758
     38 C          63.5822   94.5912   -0.8266 C.3     1  UNL1        0.2058
     39 C          62.9303   93.5674   -1.7080 C.3     1  UNL1        0.0532
     40 C          61.8831   93.9866   -2.6968 C.3     1  UNL1        0.0455
     41 O          62.2277   94.0208   -5.2717 O.co2   1  UNL1       -0.5492
     42 C          62.2799   94.7182   -3.9447 C.2     1  UNL1        0.0505
     43 O          62.7290   96.1472   -3.8655 O.co2   1  UNL1       -0.5492
@<TRIPOS>UNITY_ATOM_ATTR
35 1
charge -1
41 1
charge -1
@<TRIPOS>BOND
     1    41    42   ar
     2    42    43   ar
     3    42    40    1
     4    40    39    1
     5    39    38    1
     6    38    37    1
     7    37    26    1
     8    26    27   ar
     9    27    28   ar
    10    28    29   ar
    11    29    30   ar
    12    30    25    1
    13    25    24    1
    14    24    23    1
    15    23     1    1
    16     1     2    1
    17     2     3    1
    18     3     4    1
    19     4     5    1
    20     5     6   ar
    21     6     7   ar
    22     7    17    1
    23    17    18   ar
    24    18    19   ar
    25    19    20   ar
    26    20    21   ar
    27    21    22   ar
    28     7     8   ar
    29     8     9   ar
    30     9    11    1
    31    11    12   ar
    32    12    13   ar
    33    13    14   ar
    34    14    15   ar
    35    15    16   ar
    36     9    10   ar
    37    30    31   ar
    38    31    32    1
    39    32    33    1
    40    33    34    1
    41    34    35   ar
    42    34    36   ar
    43    31    26   ar
    44    10     5   ar
    45    22    17   ar
    46    16    11   ar
@<TRIPOS>MOLECULE
*****
 43 46 0 0 0
SMALL
GASTEIGER

@<TRIPOS>ATOM
      1 C          63.5159   88.0251   16.2289 C.3     1  UNL1        0.0038
      2 C          62.9639   89.3309   16.7188 C.3     1  UNL1        0.0473
      3 C          63.6875   90.6105   16.4199 C.3     1  UNL1        0.2054
      4 O          64.8202   90.6194   15.4367 O.3     1  UNL1       -0.4755
      5 C          64.5577   90.9305   13.9930 C.ar    1  UNL1        0.1386
      6 C          65.4889   91.8328   13.2388 C.ar    1  UNL1        0.0369
      7 C          65.2263   92.1439   11.7951 C.ar    1  UNL1        0.0031
      8 C          64.0326   91.5528   11.1056 C.ar    1  UNL1        0.0002
      9 C          63.1013   90.6505   11.8597 C.ar    1  UNL1        0.0031
     10 C          63.3639   90.3394   13.3034 C.ar    1  UNL1        0.0369
     11 C          61.9075   90.0594   11.1701 C.ar    1  UNL1        0.0032
     12 C          61.8787   89.9600    9.6738 C.ar    1  UNL1        0.0207
     13 C          60.6849   89.3689    8.9843 C.ar    1  UNL1        0.0989
     14 N          59.5200   88.8772    9.7911 N.ar    1  UNL1       -0.2423
     15 C          59.5488   88.9765   11.2875 C.ar    1  UNL1        0.0989
     16 C          60.7426   89.5676   11.9770 C.ar    1  UNL1        0.0207
     17 C          66.1576   93.0461   11.0409 C.ar    1  UNL1        0.0032
     18 C          65.9565   94.5322   11.0787 C.ar    1  UNL1        0.0207
     19 C          66.8877   95.4344   10.3245 C.ar    1  UNL1        0.0989
     20 N          68.0200   94.8506    9.5326 N.ar    1  UNL1       -0.2423
     21 C          68.2211   93.3646    9.4948 C.ar    1  UNL1        0.0989
     22 C          67.2898   92.4624   10.2490 C.ar    1  UNL1        0.0207
     23 C          63.1412   86.7467   16.9183 C.3     1  UNL1        0.0005
     24 C          63.4174   85.4290   16.2567 C.3     1  UNL1        0.0047
     25 C          62.2928   84.6455   15.6473 C.3     1  UNL1        0.0261
     26 C          63.7806   83.0560   12.3291 C.ar    1  UNL1        0.1342
     27 C          63.1299   81.7047   12.3456 C.ar    1  UNL1        0.0365
     28 C          62.2001   81.3336   13.4627 C.ar    1  UNL1        0.0028
     29 C          61.9211   82.3138   14.5632 C.ar    1  UNL1       -0.0044
     30 C          62.5718   83.6652   14.5467 C.ar    1  UNL1       -0.0232
     31 C          63.5016   84.0363   13.4296 C.ar    1  UNL1        0.0082
     32 C          64.1524   85.3877   13.4132 C.3     1  UNL1        0.0350
     33 C          63.4062   86.5729   12.8761 C.3     1  UNL1        0.0465
     34 C          62.4645   86.4056   11.7205 C.2     1  UNL1        0.0507
     35 O          61.2046   85.6091   11.8889 O.co2   1  UNL1       -0.5492
     36 O          62.7827   87.0348   10.3966 O.co2   1  UNL1       -0.5492
     37 O          64.7104   83.4272   11.2121 O.3     1  UNL1       -0.4758
     38 C          64.2597   83.2988    9.7872 C.3     1  UNL1        0.2058
     39 C          63.0715   84.0760    9.3034 C.3     1  UNL1        0.0532
     40 C          63.1534   84.8508    8.0216 C.3     1  UNL1        0.0455
     41 O          60.8066   85.8955    7.6326 O.co2   1  UNL1       -0.5492
     42 C          61.9317   85.0192    7.1677 C.2     1  UNL1        0.0505
     43 O          61.8352   84.3112    5.8488 O.co2   1  UNL1       -0.5492
@<TRIPOS>UNITY_ATOM_ATTR
35 1
charge -1
41 1
charge -1
@<TRIPOS>BOND
     1    41    42   ar
     2    42    43   ar
     3    42    40    1
     4    40    39    1
     5    39    38    1
     6    38    37    1
     7    37    26    1
     8    26    27   ar
     9    27    28   ar
    10    28    29   ar
    11    29    30   ar
    12    30    25    1
    13    25    24    1
    14    24    23    1
    15    23     1    1
    16     1     2    1
    17     2     3    1
    18     3     4    1
    19     4     5    1
    20     5     6   ar
    21     6     7   ar
    22     7    17    1
    23    17    18   ar
    24    18    19   ar
    25    19    20   ar
    26    20    21   ar
    27    21    22   ar
    28     7     8   ar
    29     8     9   ar
    30     9    11    1
    31    11    12   ar
    32    12    13   ar
    33    13    14   ar
    34    14    15   ar
    35    15    16   ar
    36     9    10   ar
    37    30    31   ar
    38    31    32    1
    39    32    33    1
    40    33    34    1
    41    34    35   ar
    42    34    36   ar
    43    31    26   ar
    44    10     5   ar
    45    22    17   ar
    46    16    11   ar
@<TRIPOS>MOLECULE
*****
 43 46 0 0 0
SMALL
GASTEIGER

@<TRIPOS>ATOM
      1 C          59.9830   90.3307   10.2737 C.3     1  UNL1        0.0038
      2 C          61.1299   90.7965   11.1208 C.3     1  UNL1        0.0473
      3 C          62.5357   90.6767   10.6114 C.3     1  UNL1        0.2054
      4 O          63.6114   91.5649   11.1626 O.3     1  UNL1       -0.4755
      5 C          64.3159   91.1901   12.4327 C.ar    1  UNL1        0.1386
      6 C          63.7952   90.0632   13.2747 C.ar    1  UNL1        0.0369
      7 C          64.4998   89.6884   14.5449 C.ar    1  UNL1        0.0031
      8 C          65.7249   90.4405   14.9730 C.ar    1  UNL1        0.0002
      9 C          66.2456   91.5675   14.1310 C.ar    1  UNL1        0.0031
     10 C          65.5411   91.9423   12.8609 C.ar    1  UNL1        0.0369
     11 C          67.4708   92.3196   14.5591 C.ar    1  UNL1        0.0032
     12 C          67.3585   93.4242   15.5677 C.ar    1  UNL1        0.0207
     13 C          68.5836   94.1762   15.9958 C.ar    1  UNL1        0.0989
     14 N          69.9211   93.8237   15.4154 N.ar    1  UNL1       -0.2423
     15 C          70.0334   92.7192   14.4068 C.ar    1  UNL1        0.0989
     16 C          68.8082   91.9671   13.9787 C.ar    1  UNL1        0.0207
     17 C          63.9791   88.5615   15.3869 C.ar    1  UNL1        0.0032
     18 C          63.0943   88.8509   16.5631 C.ar    1  UNL1        0.0207
     19 C          62.5736   87.7239   17.4051 C.ar    1  UNL1        0.0989
     20 N          62.9378   86.3077   17.0708 N.ar    1  UNL1       -0.2423
     21 C          63.8225   86.0184   15.8947 C.ar    1  UNL1        0.0989
     22 C          64.3432   87.1453   15.0527 C.ar    1  UNL1        0.0207
     23 C          60.1204   89.0899    9.4421 C.3     1  UNL1        0.0005
     24 C          59.8127   87.7488   10.0394 C.3     1  UNL1        0.0047
     25 C          60.8789   86.9934   10.7761 C.3     1  UNL1        0.0261
     26 C          63.6592   84.2572   10.0462 C.ar    1  UNL1        0.1342
     27 C          63.5644   84.1479    8.5533 C.ar    1  UNL1        0.0365
     28 C          62.5744   84.9871    7.8012 C.ar    1  UNL1        0.0028
     29 C          61.6793   85.9356    8.5421 C.ar    1  UNL1       -0.0044
     30 C          61.7741   86.0449   10.0351 C.ar    1  UNL1       -0.0232
     31 C          62.7641   85.2057   10.7871 C.ar    1  UNL1        0.0082
     32 C          62.8589   85.3150   12.2802 C.3     1  UNL1        0.0350
     33 C          62.3009   84.2267   13.1488 C.3     1  UNL1        0.0465
     34 C          63.1709   83.5683   14.1781 C.2     1  UNL1        0.0507
     35 O          62.5569   82.9801   15.4138 O.co2   1  UNL1       -0.5492
     36 O          64.6550   83.4981   13.9717 O.co2   1  UNL1       -0.5492
     37 O          64.6492   83.4179   10.7983 O.3     1  UNL1       -0.4758
     38 C          64.3896   81.9548   11.0032 C.3     1  UNL1        0.2058
     39 C          62.9832   81.4574   11.1598 C.3     1  UNL1        0.0532
     40 C          62.7138   80.2018   11.9350 C.3     1  UNL1        0.0455
     41 O          63.6071   80.1124   14.3731 O.co2   1  UNL1       -0.5492
     42 C          62.4657   80.2714   13.4128 C.2     1  UNL1        0.0505
     43 O          61.0765   80.4999   13.9301 O.co2   1  UNL1       -0.5492
@<TRIPOS>UNITY_ATOM_ATTR
35 1
charge -1
41 1
charge -1
@<TRIPOS>BOND
     1    41    42   ar
     2    42    43   ar
     3    42    40    1
     4    40    39    1
     5    39    38    1
     6    38    37    1
     7    37    26    1
     8    26    27   ar
     9    27    28   ar
    10    28    29   ar
    11    29    30   ar
    12    30    25    1
    13    25    24    1
    14    24    23    1
    15    23     1    1
    16     1     2    1
    17     2     3    1
    18     3     4    1
    19     4     5    1
    20     5     6   ar
    21     6     7   ar
    22     7    17    1
    23    17    18   ar
    24    18    19   ar
    25    19    20   ar
    26    20    21   ar
    27    21    22   ar
    28     7     8   ar
    29     8     9   ar
    30     9    11    1
    31    11    12   ar
    32    12    13   ar
    33    13    14   ar
    34    14    15   ar
    35    15    16   ar
    36     9    10   ar
    37    30    31   ar
    38    31    32    1
    39    32    33    1
    40    33    34    1
    41    34    35   ar
    42    34    36   ar
    43    31    26   ar
    44    10     5   ar
    45    22    17   ar
    46    16    11   ar
@<TRIPOS>MOLECULE
*****
 43 46 0 0 0
SMALL
GASTEIGER

@<TRIPOS>ATOM
      1 C          59.3892   89.7878    6.0158 C.3     1  UNL1        0.0038
      2 C          59.0741   88.7699    7.0715 C.3     1  UNL1        0.0473
      3 C          59.9617   88.6363    8.2733 C.3     1  UNL1        0.2054
      4 O          60.2047   87.2862    8.8799 O.3     1  UNL1       -0.4755
      5 C          61.1622   87.1398   10.0252 C.ar    1  UNL1        0.1386
      6 C          61.8043   88.3551   10.6259 C.ar    1  UNL1        0.0369
      7 C          62.7619   88.2087   11.7712 C.ar    1  UNL1        0.0031
      8 C          63.0773   86.8471   12.3158 C.ar    1  UNL1        0.0002
      9 C          62.4352   85.6319   11.7150 C.ar    1  UNL1        0.0031
     10 C          61.4777   85.7782   10.5698 C.ar    1  UNL1        0.0369
     11 C          62.7507   84.2702   12.2596 C.ar    1  UNL1        0.0032
     12 C          62.7523   83.0795   11.3474 C.ar    1  UNL1        0.0207
     13 C          63.0677   81.7180   11.8921 C.ar    1  UNL1        0.0989
     14 N          63.3816   81.5472   13.3489 N.ar    1  UNL1       -0.2423
     15 C          63.3800   82.7379   14.2611 C.ar    1  UNL1        0.0989
     16 C          63.0645   84.0994   13.7165 C.ar    1  UNL1        0.0207
     17 C          63.4040   89.4240   12.3719 C.ar    1  UNL1        0.0032
     18 C          63.9022   89.3873   13.7864 C.ar    1  UNL1        0.0207
     19 C          64.5443   90.6025   14.3871 C.ar    1  UNL1        0.0989
     20 N          64.6882   91.8544   13.5734 N.ar    1  UNL1       -0.2423
     21 C          64.1900   91.8911   12.1590 C.ar    1  UNL1        0.0989
     22 C          63.5479   90.6758   11.5583 C.ar    1  UNL1        0.0207
     23 C          58.4230   90.9001    5.7344 C.3     1  UNL1        0.0005
     24 C          58.4874   91.6373    4.4296 C.3     1  UNL1        0.0047
     25 C          59.5002   92.7260    4.2324 C.3     1  UNL1        0.0261
     26 C          62.1797   92.8036    1.3059 C.ar    1  UNL1        0.1342
     27 C          63.2457   91.9143    1.8739 C.ar    1  UNL1        0.0365
     28 C          63.0632   91.2955    3.2281 C.ar    1  UNL1        0.0028
     29 C          61.8148   91.5661    4.0143 C.ar    1  UNL1       -0.0044
     30 C          60.7488   92.4554    3.4462 C.ar    1  UNL1       -0.0232
     31 C          60.9312   93.0741    2.0920 C.ar    1  UNL1        0.0082
     32 C          59.8651   93.9635    1.5239 C.3     1  UNL1        0.0350
     33 C          58.9190   93.4326    0.4881 C.3     1  UNL1        0.0465
     34 C          58.6069   94.2487   -0.7311 C.2     1  UNL1        0.0507
     35 O          59.5729   95.2961   -1.2001 O.co2   1  UNL1       -0.5492
     36 O          57.3288   94.0173   -1.4815 O.co2   1  UNL1       -0.5492
     37 O          62.3622   93.4223   -0.0484 O.3     1  UNL1       -0.4758
     38 C          63.7319   93.8193   -0.5131 C.3     1  UNL1        0.2058
     39 C          64.1274   95.2661   -0.5324 C.3     1  UNL1        0.0532
     40 C          65.0318   95.8107    0.5332 C.3     1  UNL1        0.0455
     41 O          62.9852   96.4018    2.0205 O.co2   1  UNL1       -0.5492
     42 C          64.4655   96.2194    1.8607 C.2     1  UNL1        0.0505
     43 O          65.3794   96.4456    3.0284 O.co2   1  UNL1       -0.5492
@<TRIPOS>UNITY_ATOM_ATTR
35 1
charge -1
41 1
charge -1
@<TRIPOS>BOND
     1    41    42   ar
     2    42    43   ar
     3    42    40    1
     4    40    39    1
     5    39    38    1
     6    38    37    1
     7    37    26    1
     8    26    27   ar
     9    27    28   ar
    10    28    29   ar
    11    29    30   ar
    12    30    25    1
    13    25    24    1
    14    24    23    1
    15    23     1    1
    16     1     2    1
    17     2     3    1
    18     3     4    1
    19     4     5    1
    20     5     6   ar
    21     6     7   ar
    22     7    17    1
    23    17    18   ar
    24    18    19   ar
    25    19    20   ar
    26    20    21   ar
    27    21    22   ar
    28     7     8   ar
    29     8     9   ar
    30     9    11    1
    31    11    12   ar
    32    12    13   ar
    33    13    14   ar
    34    14    15   ar
    35    15    16   ar
    36     9    10   ar
    37    30    31   ar
    38    31    32    1
    39    32    33    1
    40    33    34    1
    41    34    35   ar
    42    34    36   ar
    43    31    26   ar
    44    10     5   ar
    45    22    17   ar
    46    16    11   ar
