@<TRIPOS>MOLECULE
*****
 40 44 0 0 0
SMALL
GASTEIGER

@<TRIPOS>ATOM
      1 C          63.2801   89.1185   17.1512 C.3     1  UNL1        0.0312
      2 C          63.6425   89.1402   15.6958 C.2     1  UNL1        0.0136
      3 C          64.1195   90.4126   15.0605 C.2     1  UNL1        0.0107
      4 C          64.4819   90.4343   13.6052 C.2     1  UNL1        0.0510
      5 C          64.3673   89.1836   12.7850 C.2     1  UNL1        0.0613
      6 C          63.8903   87.9113   13.4202 C.2     1  UNL1        0.2246
      7 N          63.6775   86.5326   12.8688 N.2     1  UNL1       -0.0378
      8 C          63.1835   85.6589   13.9835 C.2     1  UNL1        0.3605
      9 N          63.0911   86.4975   15.2238 N.2     1  UNL1       -0.0547
     10 C          63.5279   87.8896   14.8756 C.3     1  UNL1        0.2976
     11 C          62.8419   84.2022   13.8768 C.3     1  UNL1        0.2246
     12 C          62.8478   83.5267   12.5375 C.2     1  UNL1        0.0436
     13 C          62.5062   82.0699   12.4308 C.2     1  UNL1        0.0288
     14 C          62.1588   81.2887   13.6633 C.2     1  UNL1        0.0896
     15 N          62.1529   81.9643   15.0026 N.am    1  UNL1       -0.1770
     16 C          62.4945   83.4210   15.1093 C.2     1  UNL1        0.2627
     17 O          62.4887   84.0965   16.4485 O.2     1  UNL1       -0.2719
     18 N          63.1952   84.3077   11.3050 N.pl3   1  UNL1       -0.3329
     19 H          64.1192   84.6158   11.1616 H       1  UNL1        0.1466
     20 C          62.1348   84.6194   10.2908 C.3     1  UNL1        0.1211
     21 C          62.4081   85.6136    9.2014 C.3     1  UNL1        0.1522
     22 O          63.4641   85.3297    8.1746 O.3     1  UNL1       -0.3783
     23 H          63.8710   84.4686    8.3588 H       1  UNL1        0.2109
     24 C          61.6254   86.8917    9.1387 C.ar    1  UNL1        0.0067
     25 C          60.4157   86.9879    8.2571 C.ar    1  UNL1       -0.0018
     26 C          59.6330   88.2659    8.1944 C.ar    1  UNL1        0.0006
     27 C          60.0600   89.4479    9.0134 C.ar    1  UNL1        0.0114
     28 C          61.2698   89.3516    9.8950 C.ar    1  UNL1        0.0574
     29 CL         61.6968   90.5336   10.7140 Cl      1  UNL1       -0.0823
     30 C          62.0525   88.0736    9.9577 C.ar    1  UNL1        0.0095
     31 N          64.9589   91.7068   12.9700 N.pl3   1  UNL1       -0.3045
     32 C          65.7614   92.6896   13.7701 C.3     1  UNL1        0.1099
     33 C          66.2384   93.9619   13.1349 C.3     1  UNL1        0.1168
     34 N          65.9130   94.2515   11.6996 N.3     1  UNL1       -0.1559
     35 C          65.1105   93.2688   10.8994 C.3     1  UNL1        0.1168
     36 C          64.6335   91.9964   11.5346 C.3     1  UNL1        0.1099
     37 S          66.3899   95.5239   11.0643 S.O2    1  UNL1        0.0458
     38 C          66.8669   96.7963   10.4291 C.3     1  UNL1        0.1960
     39 O          66.6777   94.7814    9.7931 O.2     1  UNL1       -0.1572
     40 O          66.1022   96.2664   12.3354 O.2     1  UNL1       -0.1572
@<TRIPOS>BOND
     1     1     2    1
     2     2     3    2
     3     3     4    1
     4     4    31    1
     5    31    32    1
     6    32    33    1
     7    33    34    1
     8    34    37    1
     9    37    38    1
    10    37    39    2
    11    37    40    2
    12    34    35    1
    13    35    36    1
    14     4     5    2
    15     5     6    1
    16     6     7    2
    17     7     8    1
    18     8    11    1
    19    11    12    1
    20    12    18    1
    21    18    20    1
    22    20    21    1
    23    21    22    1
    24    21    24    1
    25    24    25   ar
    26    25    26   ar
    27    26    27   ar
    28    27    28   ar
    29    28    29    1
    30    28    30   ar
    31    12    13    2
    32    13    14    1
    33    14    15    2
    34    15    16    1
    35    16    17    2
    36     8     9    2
    37     9    10    1
    38    10     2    1
    39    36    31    1
    40    10     6    1
    41    16    11    1
    42    30    24   ar
    43    18    19    1
    44    22    23    1
@<TRIPOS>MOLECULE
*****
 40 44 0 0 0
SMALL
GASTEIGER

@<TRIPOS>ATOM
      1 C          61.7481   88.5427   10.0731 C.3     1  UNL1        0.0312
      2 C          62.3917   87.6144   11.0601 C.2     1  UNL1        0.0136
      3 C          62.3361   86.1315   10.8415 C.2     1  UNL1        0.0107
      4 C          62.9795   85.2032   11.8285 C.2     1  UNL1        0.0510
      5 C          63.6787   85.7579   13.0342 C.2     1  UNL1        0.0613
      6 C          63.7343   87.2408   13.2528 C.2     1  UNL1        0.2246
      7 N          64.3476   88.0727   14.3399 N.2     1  UNL1       -0.0378
      8 C          64.0831   89.5152   14.0247 C.2     1  UNL1        0.3605
      9 N          63.3064   89.5747   12.7428 N.2     1  UNL1       -0.0547
     10 C          63.0908   88.1691   12.2658 C.3     1  UNL1        0.2976
     11 C          64.5188   90.6916   14.8470 C.3     1  UNL1        0.2246
     12 C          65.5757   91.6202   14.3266 C.2     1  UNL1        0.0436
     13 C          66.0114   92.7966   15.1490 C.2     1  UNL1        0.0288
     14 C          65.3903   93.0444   16.4916 C.2     1  UNL1        0.0896
     15 N          64.3334   92.1159   17.0120 N.am    1  UNL1       -0.1770
     16 C          63.8978   90.9394   16.1896 C.2     1  UNL1        0.2627
     17 O          62.8409   90.0109   16.7100 O.2     1  UNL1       -0.2719
     18 N          66.1968   91.3724   12.9839 N.pl3   1  UNL1       -0.3329
     19 H          65.8458   90.6591   12.4033 H       1  UNL1        0.1466
     20 C          67.3528   92.2114   12.5260 C.3     1  UNL1        0.1211
     21 C          67.4327   92.6626   11.0977 C.3     1  UNL1        0.1522
     22 O          67.9199   91.7183   10.0390 O.3     1  UNL1       -0.3783
     23 H          68.1403   90.8647   10.4436 H       1  UNL1        0.2109
     24 C          67.0252   94.0581   10.7281 C.ar    1  UNL1        0.0067
     25 C          66.1393   94.8484   11.6449 C.ar    1  UNL1       -0.0018
     26 C          65.7319   96.2439   11.2753 C.ar    1  UNL1        0.0006
     27 C          66.2103   96.8491    9.9889 C.ar    1  UNL1        0.0114
     28 C          67.0962   96.0588    9.0721 C.ar    1  UNL1        0.0574
     29 CL         67.5746   96.6640    7.7857 Cl      1  UNL1       -0.0823
     30 C          67.5037   94.6633    9.4417 C.ar    1  UNL1        0.0095
     31 N          62.9239   83.7202   11.6098 N.pl3   1  UNL1       -0.3045
     32 C          63.5359   83.1201   10.3788 C.3     1  UNL1        0.1099
     33 C          63.4803   81.6372   10.1601 C.3     1  UNL1        0.1168
     34 N          62.8127   80.7544   11.1725 N.3     1  UNL1       -0.1559
     35 C          62.2007   81.3544   12.4035 C.3     1  UNL1        0.1168
     36 C          62.2563   82.8374   12.6222 C.3     1  UNL1        0.1099
     37 S          62.7571   79.2715   10.9540 S.O2    1  UNL1        0.0458
     38 C          62.7014   77.7885   10.7355 C.3     1  UNL1        0.1960
     39 O          62.9072   79.4835    9.4766 O.2     1  UNL1       -0.1572
     40 O          62.6069   79.0594   12.4312 O.2     1  UNL1       -0.1572
@<TRIPOS>BOND
     1     1     2    1
     2     2     3    2
     3     3     4    1
     4     4    31    1
     5    31    32    1
     6    32    33    1
     7    33    34    1
     8    34    37    1
     9    37    38    1
    10    37    39    2
    11    37    40    2
    12    34    35    1
    13    35    36    1
    14     4     5    2
    15     5     6    1
    16     6     7    2
    17     7     8    1
    18     8    11    1
    19    11    12    1
    20    12    18    1
    21    18    20    1
    22    20    21    1
    23    21    22    1
    24    21    24    1
    25    24    25   ar
    26    25    26   ar
    27    26    27   ar
    28    27    28   ar
    29    28    29    1
    30    28    30   ar
    31    12    13    2
    32    13    14    1
    33    14    15    2
    34    15    16    1
    35    16    17    2
    36     8     9    2
    37     9    10    1
    38    10     2    1
    39    36    31    1
    40    10     6    1
    41    16    11    1
    42    30    24   ar
    43    18    19    1
    44    22    23    1
@<TRIPOS>MOLECULE
*****
 40 44 0 0 0
SMALL
GASTEIGER

@<TRIPOS>ATOM
      1 C          63.1418   89.4033   17.3397 C.3     1  UNL1        0.0312
      2 C          63.4360   88.7191   16.0377 C.2     1  UNL1        0.0136
      3 C          63.1770   87.2493   15.8875 C.2     1  UNL1        0.0107
      4 C          63.4712   86.5652   14.5855 C.2     1  UNL1        0.0510
      5 C          64.0245   87.3508   13.4336 C.2     1  UNL1        0.0613
      6 C          64.2835   88.8206   13.5838 C.2     1  UNL1        0.2246
      7 N          64.8204   89.8475   12.6314 N.2     1  UNL1       -0.0378
      8 C          64.8580   91.1665   13.3449 C.2     1  UNL1        0.3605
      9 N          64.3443   90.9546   14.7382 N.2     1  UNL1       -0.0547
     10 C          63.9892   89.5047   14.8858 C.3     1  UNL1        0.2976
     11 C          65.3269   92.4686   12.7666 C.3     1  UNL1        0.2246
     12 C          65.1871   92.7299   11.2961 C.2     1  UNL1        0.0436
     13 C          65.6561   94.0322   10.7179 C.2     1  UNL1        0.0288
     14 C          66.2648   95.0731   11.6101 C.2     1  UNL1        0.0896
     15 N          66.4045   94.8118   13.0805 N.am    1  UNL1       -0.1770
     16 C          65.9356   93.5096   13.6587 C.2     1  UNL1        0.2627
     17 O          66.0753   93.2483   15.1292 O.2     1  UNL1       -0.2719
     18 N          64.5785   91.6890   10.4039 N.pl3   1  UNL1       -0.3329
     19 H          65.1508   91.0117    9.9762 H       1  UNL1        0.1466
     20 C          63.0979   91.6801   10.1634 C.3     1  UNL1        0.1211
     21 C          62.2327   90.6651   10.8500 C.3     1  UNL1        0.1522
     22 O          61.9194   90.8112   12.3096 O.3     1  UNL1       -0.3783
     23 H          62.3506   91.6086   12.6547 H       1  UNL1        0.2109
     24 C          61.6809   89.5042   10.0769 C.ar    1  UNL1        0.0067
     25 C          60.4078   89.6583    9.2989 C.ar    1  UNL1       -0.0018
     26 C          59.8560   88.4974    8.5258 C.ar    1  UNL1        0.0006
     27 C          60.5773   87.1822    8.5308 C.ar    1  UNL1        0.0114
     28 C          61.8504   87.0280    9.3088 C.ar    1  UNL1        0.0574
     29 CL         62.5717   85.7129    9.3137 Cl      1  UNL1       -0.0823
     30 C          62.4022   88.1890   10.0819 C.ar    1  UNL1        0.0095
     31 N          63.2122   85.0953   14.4353 N.pl3   1  UNL1       -0.3045
     32 C          62.3974   84.3684   15.4637 C.3     1  UNL1        0.1099
     33 C          62.1383   82.8986   15.3135 C.3     1  UNL1        0.1168
     34 N          62.6942   82.1557   14.1349 N.3     1  UNL1       -0.1559
     35 C          63.5091   82.8826   13.1065 C.3     1  UNL1        0.1168
     36 C          63.7681   84.3524   13.2567 C.3     1  UNL1        0.1099
     37 S          62.4352   80.6859   13.9847 S.O2    1  UNL1        0.0458
     38 C          62.1762   79.2161   13.8344 C.3     1  UNL1        0.1960
     39 O          63.9002   80.4106   14.1521 O.2     1  UNL1       -0.1572
     40 O          60.9703   80.9611   13.8172 O.2     1  UNL1       -0.1572
@<TRIPOS>BOND
     1     1     2    1
     2     2     3    2
     3     3     4    1
     4     4    31    1
     5    31    32    1
     6    32    33    1
     7    33    34    1
     8    34    37    1
     9    37    38    1
    10    37    39    2
    11    37    40    2
    12    34    35    1
    13    35    36    1
    14     4     5    2
    15     5     6    1
    16     6     7    2
    17     7     8    1
    18     8    11    1
    19    11    12    1
    20    12    18    1
    21    18    20    1
    22    20    21    1
    23    21    22    1
    24    21    24    1
    25    24    25   ar
    26    25    26   ar
    27    26    27   ar
    28    27    28   ar
    29    28    29    1
    30    28    30   ar
    31    12    13    2
    32    13    14    1
    33    14    15    2
    34    15    16    1
    35    16    17    2
    36     8     9    2
    37     9    10    1
    38    10     2    1
    39    36    31    1
    40    10     6    1
    41    16    11    1
    42    30    24   ar
    43    18    19    1
    44    22    23    1
@<TRIPOS>MOLECULE
*****
 40 44 0 0 0
SMALL
GASTEIGER

@<TRIPOS>ATOM
      1 C          63.0254   87.9227   17.3397 C.3     1  UNL1        0.0312
      2 C          63.4670   88.0815   15.9150 C.2     1  UNL1        0.0136
      3 C          63.9024   89.4251   15.4100 C.2     1  UNL1        0.0107
      4 C          64.3439   89.5839   13.9854 C.2     1  UNL1        0.0510
      5 C          64.3501   88.3990   13.0655 C.2     1  UNL1        0.0613
      6 C          63.9146   87.0553   13.5705 C.2     1  UNL1        0.2246
      7 N          63.8153   85.7160   12.9024 N.2     1  UNL1       -0.0378
      8 C          63.3124   84.7295   13.9142 C.2     1  UNL1        0.3605
      9 N          63.1009   85.4591   15.2077 N.2     1  UNL1       -0.0547
     10 C          63.4731   86.8966   14.9952 C.3     1  UNL1        0.2976
     11 C          63.0645   83.2696   13.6747 C.3     1  UNL1        0.2246
     12 C          62.4785   82.8122   12.3719 C.2     1  UNL1        0.0436
     13 C          62.2306   81.3523   12.1325 C.2     1  UNL1        0.0288
     14 C          62.5688   80.3499   13.1959 C.2     1  UNL1        0.0896
     15 N          63.1548   80.8072   14.4987 N.am    1  UNL1       -0.1770
     16 C          63.4027   82.2672   14.7381 C.2     1  UNL1        0.2627
     17 O          63.9887   82.7246   16.0409 O.2     1  UNL1       -0.2719
     18 N          62.1403   83.8146   11.3086 N.pl3   1  UNL1       -0.3329
     19 H          61.2363   84.2023   11.2672 H       1  UNL1        0.1466
     20 C          63.1794   84.2264   10.3082 C.3     1  UNL1        0.1211
     21 C          62.7900   85.0558    9.1206 C.3     1  UNL1        0.1522
     22 O          63.2634   84.6719    7.7500 O.3     1  UNL1       -0.3783
     23 H          63.8063   83.8701    7.8082 H       1  UNL1        0.2109
     24 C          61.9272   86.2691    9.3036 C.ar    1  UNL1        0.0067
     25 C          62.1692   87.1942   10.4592 C.ar    1  UNL1       -0.0018
     26 C          61.3064   88.4075   10.6421 C.ar    1  UNL1        0.0006
     27 C          60.2015   88.6957    9.6694 C.ar    1  UNL1        0.0114
     28 C          59.9594   87.7705    8.5138 C.ar    1  UNL1        0.0574
     29 CL         58.8545   88.0587    7.5412 Cl      1  UNL1       -0.0823
     30 C          60.8223   86.5572    8.3309 C.ar    1  UNL1        0.0095
     31 N          64.7794   90.9276   13.4804 N.pl3   1  UNL1       -0.3045
     32 C          64.2853   91.4269   12.1550 C.3     1  UNL1        0.1099
     33 C          64.7208   92.7706   11.6501 C.3     1  UNL1        0.1168
     34 N          65.6503   93.6149   12.4705 N.3     1  UNL1       -0.1559
     35 C          66.1444   93.1156   13.7958 C.3     1  UNL1        0.1168
     36 C          65.7089   91.7719   14.3008 C.3     1  UNL1        0.1099
     37 S          66.0858   94.9585   11.9656 S.O2    1  UNL1        0.0458
     38 C          66.5212   96.3022   11.4606 C.3     1  UNL1        0.1960
     39 O          66.7294   95.2474   13.2893 O.2     1  UNL1       -0.1572
     40 O          65.4422   94.6697   10.6419 O.2     1  UNL1       -0.1572
@<TRIPOS>BOND
     1     1     2    1
     2     2     3    2
     3     3     4    1
     4     4    31    1
     5    31    32    1
     6    32    33    1
     7    33    34    1
     8    34    37    1
     9    37    38    1
    10    37    39    2
    11    37    40    2
    12    34    35    1
    13    35    36    1
    14     4     5    2
    15     5     6    1
    16     6     7    2
    17     7     8    1
    18     8    11    1
    19    11    12    1
    20    12    18    1
    21    18    20    1
    22    20    21    1
    23    21    22    1
    24    21    24    1
    25    24    25   ar
    26    25    26   ar
    27    26    27   ar
    28    27    28   ar
    29    28    29    1
    30    28    30   ar
    31    12    13    2
    32    13    14    1
    33    14    15    2
    34    15    16    1
    35    16    17    2
    36     8     9    2
    37     9    10    1
    38    10     2    1
    39    36    31    1
    40    10     6    1
    41    16    11    1
    42    30    24   ar
    43    18    19    1
    44    22    23    1
