@<TRIPOS>MOLECULE
*****
 31 34 0 0 0
SMALL
GASTEIGER

@<TRIPOS>ATOM
      1 C          64.0879   89.7046   14.9041 C.ar    1  UNL1        0.1233
      2 C          64.2623   88.2155   14.9524 C.ar    1  UNL1        0.1181
      3 N          63.4646   87.6927   16.1102 N.ar    1  UNL1       -0.2208
      4 N          62.7973   88.8588   16.7774 N.ar    1  UNL1       -0.0633
      5 N          63.1825   90.1021   16.0320 N.ar    1  UNL1       -0.1287
      6 C          65.9536   92.4901   11.9025 C.ar    1  UNL1        0.0929
      7 C          66.6493   92.2132   13.2022 C.ar    1  UNL1        0.0199
      8 C          66.0274   91.2847   14.2027 C.ar    1  UNL1        0.0032
      9 C          64.7098   90.6331   13.9035 C.ar    1  UNL1        0.0233
     10 C          64.0142   90.9101   12.6038 C.ar    1  UNL1        0.0327
     11 C          64.6361   91.8385   11.6033 C.ar    1  UNL1        0.1562
     12 F          63.9404   92.1155   10.3034 F       1  UNL1       -0.2026
     13 C          67.2397   96.8550    9.2239 C.3     1  UNL1        0.0538
     14 C          67.1667   95.4250    9.6707 C.ar    1  UNL1        0.0786
     15 C          66.3492   94.8988   10.8130 C.ar    1  UNL1        0.0963
     16 N          66.5755   93.4186   10.9019 N.ar    1  UNL1       -0.2846
     17 C          67.5330   93.0300    9.8145 C.ar    1  UNL1        0.1826
     18 N          67.8983   94.2700    9.0536 N.ar    1  UNL1       -0.2280
     19 C          63.3538   86.2562   16.5275 C.3     1  UNL1        0.2139
     20 C          63.5441   85.1647   15.5164 C.2     1  UNL1        0.2511
     21 O          64.9278   84.7331   15.1300 O.2     1  UNL1       -0.2726
     22 N          62.3507   84.5047   14.8916 N.am    1  UNL1       -0.2816
     23 H          61.4426   84.7880   15.1452 H       1  UNL1        0.1549
     24 C          62.5410   83.4132   13.8805 C.ar    1  UNL1        0.0619
     25 C          62.2702   81.9867   14.2570 C.ar    1  UNL1        0.0156
     26 C          62.4604   80.8951   13.2459 C.ar    1  UNL1        0.0022
     27 C          62.9216   81.2301   11.8583 C.ar    1  UNL1        0.0123
     28 C          63.1924   82.6566   11.4819 C.ar    1  UNL1        0.0694
     29 CL         63.6536   82.9915   10.0944 Cl      1  UNL1       -0.0813
     30 C          63.0021   83.7481   12.4930 C.ar    1  UNL1        0.0816
     31 CL         63.2730   85.1747   12.1166 Cl      1  UNL1       -0.0801
@<TRIPOS>BOND
     1    13    14    1
     2    14    15   ar
     3    15    16   ar
     4    16     6    1
     5     6     7   ar
     6     7     8   ar
     7     8     9   ar
     8     9     1    1
     9     1     2   ar
    10     2     3   ar
    11     3    19    1
    12    19    20    1
    13    20    21    2
    14    20    22   am
    15    22    24    1
    16    24    25   ar
    17    25    26   ar
    18    26    27   ar
    19    27    28   ar
    20    28    29    1
    21    28    30   ar
    22    30    31    1
    23     3     4   ar
    24     4     5   ar
    25     9    10   ar
    26    10    11   ar
    27    11    12    1
    28    16    17   ar
    29    17    18   ar
    30    18    14   ar
    31    11     6   ar
    32     5     1   ar
    33    30    24   ar
    34    22    23    1
@<TRIPOS>MOLECULE
*****
 31 34 0 0 0
SMALL
GASTEIGER

@<TRIPOS>ATOM
      1 C          63.9248   89.3784   15.0521 C.ar    1  UNL1        0.1233
      2 C          64.2580   87.9177   14.9776 C.ar    1  UNL1        0.1181
      3 N          63.5036   87.2140   16.0664 N.ar    1  UNL1       -0.2208
      4 N          62.7040   88.2398   16.8139 N.ar    1  UNL1       -0.0633
      5 N          62.9644   89.5774   16.1870 N.ar    1  UNL1       -0.1287
      6 C          65.5252   92.5978   12.3458 C.ar    1  UNL1        0.0929
      7 C          64.3260   91.7976   11.9318 C.ar    1  UNL1        0.0199
      8 C          63.7925   90.7245   12.8338 C.ar    1  UNL1        0.0032
      9 C          64.4583   90.4515   14.1500 C.ar    1  UNL1        0.0233
     10 C          65.6576   91.2517   14.5640 C.ar    1  UNL1        0.0327
     11 C          66.1911   92.3248   13.6619 C.ar    1  UNL1        0.1562
     12 F          67.3904   93.1249   14.0759 F       1  UNL1       -0.2026
     13 C          67.6333   95.0704    8.1837 C.3     1  UNL1        0.0538
     14 C          67.0278   94.8074    9.5305 C.ar    1  UNL1        0.0786
     15 C          66.6118   93.4687   10.0641 C.ar    1  UNL1        0.0963
     16 N          66.0588   93.6709   11.4437 N.ar    1  UNL1       -0.2846
     17 C          66.1330   95.1347   11.7628 C.ar    1  UNL1        0.1826
     18 N          66.7318   95.8371   10.5805 N.ar    1  UNL1       -0.2280
     19 C          63.5419   85.7429   16.3569 C.3     1  UNL1        0.2139
     20 C          63.7466   84.7630   15.2398 C.2     1  UNL1        0.2511
     21 O          64.9874   83.9210   15.1987 O.2     1  UNL1       -0.2726
     22 N          62.7106   84.6250   14.1639 N.am    1  UNL1       -0.2816
     23 H          61.8963   85.1776   14.1909 H       1  UNL1        0.1549
     24 C          62.9153   83.6450   13.0468 C.ar    1  UNL1        0.0619
     25 C          63.4821   84.1081   11.7375 C.ar    1  UNL1        0.0156
     26 C          63.6868   83.1282   10.6204 C.ar    1  UNL1        0.0022
     27 C          63.3247   81.6852   10.8127 C.ar    1  UNL1        0.0123
     28 C          62.7580   81.2222   12.1220 C.ar    1  UNL1        0.0694
     29 CL         62.3960   79.7793   12.3144 Cl      1  UNL1       -0.0813
     30 C          62.5533   82.2022   13.2391 C.ar    1  UNL1        0.0816
     31 CL         61.9866   81.7392   14.5485 Cl      1  UNL1       -0.0801
@<TRIPOS>BOND
     1    13    14    1
     2    14    15   ar
     3    15    16   ar
     4    16     6    1
     5     6     7   ar
     6     7     8   ar
     7     8     9   ar
     8     9     1    1
     9     1     2   ar
    10     2     3   ar
    11     3    19    1
    12    19    20    1
    13    20    21    2
    14    20    22   am
    15    22    24    1
    16    24    25   ar
    17    25    26   ar
    18    26    27   ar
    19    27    28   ar
    20    28    29    1
    21    28    30   ar
    22    30    31    1
    23     3     4   ar
    24     4     5   ar
    25     9    10   ar
    26    10    11   ar
    27    11    12    1
    28    16    17   ar
    29    17    18   ar
    30    18    14   ar
    31    11     6   ar
    32     5     1   ar
    33    30    24   ar
    34    22    23    1
@<TRIPOS>MOLECULE
*****
 31 34 0 0 0
SMALL
GASTEIGER

@<TRIPOS>ATOM
      1 C          63.4170   89.7764   13.2621 C.ar    1  UNL1        0.1233
      2 C          64.5743   90.7290   13.2066 C.ar    1  UNL1        0.1181
      3 N          64.7386   91.3387   14.5672 N.ar    1  UNL1       -0.2208
      4 N          63.6828   90.7628   15.4637 N.ar    1  UNL1       -0.0633
      5 N          62.8660   89.7973   14.6571 N.ar    1  UNL1       -0.1287
      6 C          61.8697   87.2921    9.8439 C.ar    1  UNL1        0.0929
      7 C          61.8937   88.7878    9.7333 C.ar    1  UNL1        0.0199
      8 C          62.4095   89.6159   10.8727 C.ar    1  UNL1        0.0032
      9 C          62.9012   88.9482   12.1227 C.ar    1  UNL1        0.0233
     10 C          62.8772   87.4525   12.2333 C.ar    1  UNL1        0.0327
     11 C          62.3614   86.6245   11.0939 C.ar    1  UNL1        0.1562
     12 F          62.3373   85.1287   11.2044 F       1  UNL1       -0.2026
     13 C          61.6578   83.9950    5.7250 C.3     1  UNL1        0.0538
     14 C          61.2565   84.9484    6.8112 C.ar    1  UNL1        0.0786
     15 C          62.1773   85.5870    7.8084 C.ar    1  UNL1        0.0963
     16 N          61.3539   86.4640    8.7045 N.ar    1  UNL1       -0.2846
     17 C          59.9242   86.3674    8.2611 C.ar    1  UNL1        0.1826
     18 N          59.8640   85.4308    7.0910 N.ar    1  UNL1       -0.2280
     19 C          65.7765   92.3471   14.9620 C.3     1  UNL1        0.2139
     20 C          66.3757   93.2516   13.9262 C.2     1  UNL1        0.2511
     21 O          67.7336   93.8493   14.1475 O.2     1  UNL1       -0.2726
     22 N          65.6169   93.5584   12.6692 N.am    1  UNL1       -0.2816
     23 H          64.7257   93.1662   12.5239 H       1  UNL1        0.1549
     24 C          66.2161   94.4630   11.6333 C.ar    1  UNL1        0.0619
     25 C          66.1364   95.9515   11.8011 C.ar    1  UNL1        0.0156
     26 C          66.7356   96.8560   10.7653 C.ar    1  UNL1        0.0022
     27 C          67.4143   96.2720    9.5618 C.ar    1  UNL1        0.0123
     28 C          67.4940   94.7836    9.3941 C.ar    1  UNL1        0.0694
     29 CL         68.1727   94.1996    8.1906 Cl      1  UNL1       -0.0813
     30 C          66.8948   93.8790   10.4299 C.ar    1  UNL1        0.0816
     31 CL         66.9744   92.3906   10.2623 Cl      1  UNL1       -0.0801
@<TRIPOS>BOND
     1    13    14    1
     2    14    15   ar
     3    15    16   ar
     4    16     6    1
     5     6     7   ar
     6     7     8   ar
     7     8     9   ar
     8     9     1    1
     9     1     2   ar
    10     2     3   ar
    11     3    19    1
    12    19    20    1
    13    20    21    2
    14    20    22   am
    15    22    24    1
    16    24    25   ar
    17    25    26   ar
    18    26    27   ar
    19    27    28   ar
    20    28    29    1
    21    28    30   ar
    22    30    31    1
    23     3     4   ar
    24     4     5   ar
    25     9    10   ar
    26    10    11   ar
    27    11    12    1
    28    16    17   ar
    29    17    18   ar
    30    18    14   ar
    31    11     6   ar
    32     5     1   ar
    33    30    24   ar
    34    22    23    1
@<TRIPOS>MOLECULE
*****
 31 34 0 0 0
SMALL
GASTEIGER

@<TRIPOS>ATOM
      1 C          63.9739   89.2265   14.3389 C.ar    1  UNL1        0.1233
      2 C          65.2645   89.9795   14.4709 C.ar    1  UNL1        0.1181
      3 N          64.9484   91.3564   14.9751 N.ar    1  UNL1       -0.2208
      4 N          63.4623   91.4543   15.1548 N.ar    1  UNL1       -0.0633
      5 N          62.8601   90.1380   14.7616 N.ar    1  UNL1       -0.1287
      6 C          63.5228   84.9788   12.9235 C.ar    1  UNL1        0.0929
      7 C          64.2424   85.2691   14.2072 C.ar    1  UNL1        0.0199
      8 C          64.3927   86.6850   14.6790 C.ar    1  UNL1        0.0032
      9 C          63.8235   87.8105   13.8671 C.ar    1  UNL1        0.0233
     10 C          63.1040   87.5202   12.5834 C.ar    1  UNL1        0.0327
     11 C          62.9536   86.1043   12.1116 C.ar    1  UNL1        0.1562
     12 F          62.2341   85.8139   10.8278 F       1  UNL1       -0.2026
     13 C          62.3822   79.8250   12.7881 C.3     1  UNL1        0.0538
     14 C          62.8481   81.1939   12.3895 C.ar    1  UNL1        0.0786
     15 C          62.8101   82.4230   13.2484 C.ar    1  UNL1        0.0963
     16 N          63.3725   83.5628   12.4517 N.ar    1  UNL1       -0.2846
     17 C          63.7580   83.0381   11.1004 C.ar    1  UNL1        0.1826
     18 N          63.4339   81.5741   11.0619 N.ar    1  UNL1       -0.2280
     19 C          65.9435   92.4442   15.2512 C.3     1  UNL1        0.2139
     20 C          66.4658   93.2864   14.1252 C.2     1  UNL1        0.2511
     21 O          67.7284   94.0766   14.3027 O.2     1  UNL1       -0.2726
     22 N          65.7255   93.3385   12.8217 N.am    1  UNL1       -0.2816
     23 H          64.8968   92.8199   12.7052 H       1  UNL1        0.1549
     24 C          66.2477   94.1806   11.6956 C.ar    1  UNL1        0.0619
     25 C          66.0460   95.6669   11.7147 C.ar    1  UNL1        0.0156
     26 C          66.5683   96.5091   10.5886 C.ar    1  UNL1        0.0022
     27 C          67.2923   95.8650    9.4436 C.ar    1  UNL1        0.0123
     28 C          67.4940   94.3788    9.4246 C.ar    1  UNL1        0.0694
     29 CL         68.2180   93.7347    8.2796 Cl      1  UNL1       -0.0813
     30 C          66.9717   93.5366   10.5506 C.ar    1  UNL1        0.0816
     31 CL         67.1734   92.0503   10.5317 Cl      1  UNL1       -0.0801
@<TRIPOS>BOND
     1    13    14    1
     2    14    15   ar
     3    15    16   ar
     4    16     6    1
     5     6     7   ar
     6     7     8   ar
     7     8     9   ar
     8     9     1    1
     9     1     2   ar
    10     2     3   ar
    11     3    19    1
    12    19    20    1
    13    20    21    2
    14    20    22   am
    15    22    24    1
    16    24    25   ar
    17    25    26   ar
    18    26    27   ar
    19    27    28   ar
    20    28    29    1
    21    28    30   ar
    22    30    31    1
    23     3     4   ar
    24     4     5   ar
    25     9    10   ar
    26    10    11   ar
    27    11    12    1
    28    16    17   ar
    29    17    18   ar
    30    18    14   ar
    31    11     6   ar
    32     5     1   ar
    33    30    24   ar
    34    22    23    1
@<TRIPOS>MOLECULE
*****
 31 34 0 0 0
SMALL
GASTEIGER

@<TRIPOS>ATOM
      1 C          63.8013   87.7126   13.6736 C.ar    1  UNL1        0.1233
      2 C          63.5453   88.9074   12.8036 C.ar    1  UNL1        0.1181
      3 N          63.8757   90.1373   13.5962 N.ar    1  UNL1       -0.2208
      4 N          64.3359   89.7025   14.9562 N.ar    1  UNL1       -0.0633
      5 N          64.2898   88.2040   15.0039 N.ar    1  UNL1       -0.1287
      6 C          63.2075   83.4095   12.4986 C.ar    1  UNL1        0.0929
      7 C          62.7217   84.5066   11.5984 C.ar    1  UNL1        0.0199
      8 C          62.9197   85.9409   11.9901 C.ar    1  UNL1        0.0032
      9 C          63.6033   86.2782   13.2819 C.ar    1  UNL1        0.0233
     10 C          64.0891   85.1811   14.1821 C.ar    1  UNL1        0.0327
     11 C          63.8912   83.7467   13.7905 C.ar    1  UNL1        0.1562
     12 F          64.3769   82.6495   14.6906 F       1  UNL1       -0.2026
     13 C          62.9242   78.9765    9.6439 C.3     1  UNL1        0.0538
     14 C          62.8794   79.9374   10.7947 C.ar    1  UNL1        0.0786
     15 C          63.1753   81.4065   10.7288 C.ar    1  UNL1        0.0963
     16 N          63.0096   81.9751   12.1070 N.ar    1  UNL1       -0.2846
     17 C          62.6112   80.8574   13.0247 C.ar    1  UNL1        0.1826
     18 N          62.5307   79.5981   12.2137 N.ar    1  UNL1       -0.2280
     19 C          63.7654   91.5533   13.1137 C.3     1  UNL1        0.2139
     20 C          64.5757   92.0099   11.9370 C.2     1  UNL1        0.2511
     21 O          64.0669   91.7863   10.5437 O.2     1  UNL1       -0.2726
     22 N          65.8949   92.6903   12.1534 N.am    1  UNL1       -0.2816
     23 H          66.2289   92.8371   13.0678 H       1  UNL1        0.1549
     24 C          66.7053   93.1469   10.9766 C.ar    1  UNL1        0.0619
     25 C          67.5530   92.1651   10.2235 C.ar    1  UNL1        0.0156
     26 C          68.3634   92.6217    9.0467 C.ar    1  UNL1        0.0022
     27 C          68.3260   94.0603    8.6232 C.ar    1  UNL1        0.0123
     28 C          67.4783   95.0421    9.3763 C.ar    1  UNL1        0.0694
     29 CL         67.4409   96.4806    8.9528 Cl      1  UNL1       -0.0813
     30 C          66.6679   94.5854   10.5531 C.ar    1  UNL1        0.0816
     31 CL         65.8202   95.5672   11.3064 Cl      1  UNL1       -0.0801
@<TRIPOS>BOND
     1    13    14    1
     2    14    15   ar
     3    15    16   ar
     4    16     6    1
     5     6     7   ar
     6     7     8   ar
     7     8     9   ar
     8     9     1    1
     9     1     2   ar
    10     2     3   ar
    11     3    19    1
    12    19    20    1
    13    20    21    2
    14    20    22   am
    15    22    24    1
    16    24    25   ar
    17    25    26   ar
    18    26    27   ar
    19    27    28   ar
    20    28    29    1
    21    28    30   ar
    22    30    31    1
    23     3     4   ar
    24     4     5   ar
    25     9    10   ar
    26    10    11   ar
    27    11    12    1
    28    16    17   ar
    29    17    18   ar
    30    18    14   ar
    31    11     6   ar
    32     5     1   ar
    33    30    24   ar
    34    22    23    1
