@<TRIPOS>MOLECULE
*****
 25 28 0 0 0
SMALL
GASTEIGER

@<TRIPOS>ATOM
      1 C          63.1910   86.7660   12.6209 C.3     1  UNL1        0.1140
      2 C          63.4639   88.2289   12.8092 C.ar    1  UNL1        0.0273
      3 C          64.2510   88.9782   13.8431 C.ar    1  UNL1        0.1379
      4 F          64.9402   88.2323   14.9470 F       1  UNL1       -0.2044
      5 C          64.3488   90.4734   13.7732 C.ar    1  UNL1        0.0294
      6 C          63.6595   91.2192   12.6693 C.ar    1  UNL1        0.0023
      7 C          62.8724   90.4700   11.6353 C.ar    1  UNL1        0.0014
      8 C          62.7746   88.9748   11.7052 C.ar    1  UNL1        0.0173
      9 C          62.0758   87.9729   10.8347 C.ar    1  UNL1        0.0804
     10 C          61.2179   87.8147    9.6145 C.ar    1  UNL1        0.1178
     11 N          60.9450   86.3518    9.4263 N.ar    1  UNL1       -0.2223
     12 C          61.6343   85.6059   10.5302 C.ar    1  UNL1        0.1788
     13 N          62.3331   86.6078   11.4006 N.ar    1  UNL1       -0.3068
     14 C          63.6887   85.6561   13.4987 C.3     1  UNL1        0.0565
     15 O          61.8077   84.9060   15.1264 O.3     1  UNL1       -0.3844
     16 C          62.7384   84.6044   13.9893 C.3     1  UNL1        0.1127
     17 H          61.9485   85.8176   15.4263 H       1  UNL1        0.2103
     18 C          62.7187   83.2510   13.3428 C.3     1  UNL1        0.0274
     19 C          63.2070   83.0855   11.9342 C.3     1  UNL1        0.0080
     20 C          63.1873   81.7321   11.2878 C.3     1  UNL1        0.0666
     21 C          62.6795   80.5442   12.0499 C.3     1  UNL1        0.2639
     22 F          62.2947   79.1280   12.3603 F       1  UNL1       -0.2043
     23 F          63.0341   79.8869   10.7491 F       1  UNL1       -0.2043
     24 C          62.1912   80.7096   13.4586 C.3     1  UNL1        0.0666
     25 C          62.2108   82.0630   14.1050 C.3     1  UNL1        0.0080
@<TRIPOS>BOND
     1    15    16    1
     2    16    14    1
     3    14     1    1
     4     1     2    1
     5     2     3   ar
     6     3     4    1
     7     3     5   ar
     8     5     6   ar
     9     6     7   ar
    10     7     8   ar
    11     8     9    1
    12     9    10   ar
    13    10    11   ar
    14    11    12   ar
    15    12    13   ar
    16    16    18    1
    17    18    19    1
    18    19    20    1
    19    20    21    1
    20    21    22    1
    21    21    23    1
    22    21    24    1
    23    24    25    1
    24    13     1    1
    25    25    18    1
    26     8     2   ar
    27    13     9   ar
    28    15    17    1
@<TRIPOS>MOLECULE
*****
 25 28 0 0 0
SMALL
GASTEIGER

@<TRIPOS>ATOM
      1 C          61.6699   88.3341   11.0685 C.3     1  UNL1        0.1140
      2 C          60.8793   88.0418    9.8277 C.ar    1  UNL1        0.0273
      3 C          60.0538   88.9188    8.9336 C.ar    1  UNL1        0.1379
      4 F          59.9188   90.3819    9.2353 F       1  UNL1       -0.2044
      5 C          59.3634   88.3326    7.7378 C.ar    1  UNL1        0.0294
      6 C          59.4986   86.8696    7.4363 C.ar    1  UNL1        0.0023
      7 C          60.3240   85.9925    8.3304 C.ar    1  UNL1        0.0014
      8 C          61.0144   86.5786    9.5261 C.ar    1  UNL1        0.0173
      9 C          61.8885   85.9667   10.5804 C.ar    1  UNL1        0.0804
     10 C          62.5122   84.6843   11.0456 C.ar    1  UNL1        0.1178
     11 N          63.3027   84.9767   12.2863 N.ar    1  UNL1       -0.2223
     12 C          63.1677   86.4398   12.5880 C.ar    1  UNL1        0.1788
     13 N          62.2936   87.0517   11.5337 N.ar    1  UNL1       -0.3068
     14 C          61.8119   89.6738   11.7283 C.3     1  UNL1        0.0565
     15 O          62.7442   91.2223    9.8620 O.3     1  UNL1       -0.3844
     16 C          62.8480   90.6433   11.2419 C.3     1  UNL1        0.1127
     17 H          61.9559   90.8684    9.4213 H       1  UNL1        0.2103
     18 C          63.9878   91.0338   12.1354 C.3     1  UNL1        0.0274
     19 C          64.9407   92.1106   11.7083 C.3     1  UNL1        0.0080
     20 C          66.0805   92.5011   12.6017 C.3     1  UNL1        0.0666
     21 C          66.2676   91.8147   13.9222 C.3     1  UNL1        0.2639
     22 F          66.8565   91.4595   15.2552 F       1  UNL1       -0.2043
     23 F          67.4249   92.7682   13.9580 F       1  UNL1       -0.2043
     24 C          65.3147   90.7378   14.3494 C.3     1  UNL1        0.0666
     25 C          64.1748   90.3473   13.4560 C.3     1  UNL1        0.0080
@<TRIPOS>BOND
     1    15    16    1
     2    16    14    1
     3    14     1    1
     4     1     2    1
     5     2     3   ar
     6     3     4    1
     7     3     5   ar
     8     5     6   ar
     9     6     7   ar
    10     7     8   ar
    11     8     9    1
    12     9    10   ar
    13    10    11   ar
    14    11    12   ar
    15    12    13   ar
    16    16    18    1
    17    18    19    1
    18    19    20    1
    19    20    21    1
    20    21    22    1
    21    21    23    1
    22    21    24    1
    23    24    25    1
    24    13     1    1
    25    25    18    1
    26     8     2   ar
    27    13     9   ar
    28    15    17    1
@<TRIPOS>MOLECULE
*****
 25 28 0 0 0
SMALL
GASTEIGER

@<TRIPOS>ATOM
      1 C          62.0039   87.1178   11.1441 C.3     1  UNL1        0.1140
      2 C          62.5843   88.4436   11.5387 C.ar    1  UNL1        0.0273
      3 C          63.5341   88.8385   12.6304 C.ar    1  UNL1        0.1379
      4 F          64.0732   87.7991   13.5678 F       1  UNL1       -0.2044
      5 C          63.9446   90.2730   12.7847 C.ar    1  UNL1        0.0294
      6 C          63.4055   91.3124   11.8472 C.ar    1  UNL1        0.0023
      7 C          62.4557   90.9174   10.7554 C.ar    1  UNL1        0.0014
      8 C          62.0451   89.4830   10.6011 C.ar    1  UNL1        0.0173
      9 C          61.1315   88.7997    9.6273 C.ar    1  UNL1        0.0804
     10 C          60.2336   89.0198    8.4460 C.ar    1  UNL1        0.1178
     11 N          59.6533   87.6941    8.0515 N.ar    1  UNL1       -0.2223
     12 C          60.1925   86.6546    8.9890 C.ar    1  UNL1        0.1788
     13 N          61.1060   87.3379    9.9628 N.ar    1  UNL1       -0.3068
     14 C          62.2739   85.8028   11.8134 C.3     1  UNL1        0.0565
     15 O          63.2652   84.8480    9.6098 O.3     1  UNL1       -0.3844
     16 C          62.7581   84.6355   11.0054 C.3     1  UNL1        0.1127
     17 H          63.2122   85.7905    9.3865 H       1  UNL1        0.2103
     18 C          62.7350   83.2555   11.5930 C.3     1  UNL1        0.0274
     19 C          62.9144   82.0595   10.7057 C.3     1  UNL1        0.0080
     20 C          62.8914   80.6796   11.2932 C.3     1  UNL1        0.0666
     21 C          62.6890   80.4957   12.7681 C.3     1  UNL1        0.2639
     22 F          62.5297   79.8142   14.0948 F       1  UNL1       -0.2043
     23 F          62.8130   79.0630   12.3415 F       1  UNL1       -0.2043
     24 C          62.5097   81.6917   13.6554 C.3     1  UNL1        0.0666
     25 C          62.5327   83.0717   13.0679 C.3     1  UNL1        0.0080
@<TRIPOS>BOND
     1    15    16    1
     2    16    14    1
     3    14     1    1
     4     1     2    1
     5     2     3   ar
     6     3     4    1
     7     3     5   ar
     8     5     6   ar
     9     6     7   ar
    10     7     8   ar
    11     8     9    1
    12     9    10   ar
    13    10    11   ar
    14    11    12   ar
    15    12    13   ar
    16    16    18    1
    17    18    19    1
    18    19    20    1
    19    20    21    1
    20    21    22    1
    21    21    23    1
    22    21    24    1
    23    24    25    1
    24    13     1    1
    25    25    18    1
    26     8     2   ar
    27    13     9   ar
    28    15    17    1
@<TRIPOS>MOLECULE
*****
 25 28 0 0 0
SMALL
GASTEIGER

@<TRIPOS>ATOM
      1 C          63.3086   87.2298   12.7094 C.3     1  UNL1        0.1140
      2 C          63.4570   85.7755   13.0458 C.ar    1  UNL1        0.0273
      3 C          64.1768   85.0708   14.1572 C.ar    1  UNL1        0.1379
      4 F          64.9251   85.8635   15.1874 F       1  UNL1       -0.2044
      5 C          64.1483   83.5732   14.2382 C.ar    1  UNL1        0.0294
      6 C          63.4000   82.7805   13.2079 C.ar    1  UNL1        0.0023
      7 C          62.6801   83.4852   12.0965 C.ar    1  UNL1        0.0014
      8 C          62.7086   84.9827   12.0155 C.ar    1  UNL1        0.0173
      9 C          62.0978   85.9470   11.0423 C.ar    1  UNL1        0.0804
     10 C          61.2578   86.0530    9.8041 C.ar    1  UNL1        0.1178
     11 N          61.1094   87.5072    9.4677 N.ar    1  UNL1       -0.2223
     12 C          61.8577   88.3000   10.4980 C.ar    1  UNL1        0.1788
     13 N          62.4686   87.3358   11.4712 N.ar    1  UNL1       -0.3068
     14 C          63.8969   88.3767   13.4765 C.3     1  UNL1        0.0565
     15 O          61.9057   90.0013   13.8582 O.3     1  UNL1       -0.3844
     16 C          63.2962   89.7459   13.3568 C.3     1  UNL1        0.1127
     17 H          61.5395   89.1823   14.2271 H       1  UNL1        0.2103
     18 C          64.0858   90.8597   12.7357 C.3     1  UNL1        0.0274
     19 C          63.8357   91.2518   11.3096 C.3     1  UNL1        0.0080
     20 C          64.6254   92.3657   10.6885 C.3     1  UNL1        0.0666
     21 C          65.6652   93.0874   11.4934 C.3     1  UNL1        0.2639
     22 F          66.7487   94.0629   11.8457 F       1  UNL1       -0.2043
     23 F          65.7913   93.8183   10.1897 F       1  UNL1       -0.2043
     24 C          65.9153   92.6953   12.9196 C.3     1  UNL1        0.0666
     25 C          65.1256   91.5815   13.5407 C.3     1  UNL1        0.0080
@<TRIPOS>BOND
     1    15    16    1
     2    16    14    1
     3    14     1    1
     4     1     2    1
     5     2     3   ar
     6     3     4    1
     7     3     5   ar
     8     5     6   ar
     9     6     7   ar
    10     7     8   ar
    11     8     9    1
    12     9    10   ar
    13    10    11   ar
    14    11    12   ar
    15    12    13   ar
    16    16    18    1
    17    18    19    1
    18    19    20    1
    19    20    21    1
    20    21    22    1
    21    21    23    1
    22    21    24    1
    23    24    25    1
    24    13     1    1
    25    25    18    1
    26     8     2   ar
    27    13     9   ar
    28    15    17    1
@<TRIPOS>MOLECULE
*****
 25 28 0 0 0
SMALL
GASTEIGER

@<TRIPOS>ATOM
      1 C          63.2036   88.4282   12.3376 C.3     1  UNL1        0.1140
      2 C          62.3929   87.9031   11.1899 C.ar    1  UNL1        0.0273
      3 C          61.7209   88.5903   10.0383 C.ar    1  UNL1        0.1379
      4 F          61.8056   90.0815    9.9019 F       1  UNL1       -0.2044
      5 C          60.9641   87.7860    9.0231 C.ar    1  UNL1        0.0294
      6 C          60.8794   86.2947    9.1596 C.ar    1  UNL1        0.0023
      7 C          61.5514   85.6075   10.3112 C.ar    1  UNL1        0.0014
      8 C          62.3081   86.4117   11.3264 C.ar    1  UNL1        0.0173
      9 C          63.0665   86.0151   12.5583 C.ar    1  UNL1        0.0804
     10 C          63.4827   84.8482   13.4040 C.ar    1  UNL1        0.1178
     11 N          64.2934   85.3734   14.5516 N.ar    1  UNL1       -0.2223
     12 C          64.3782   86.8647   14.4152 C.ar    1  UNL1        0.1788
     13 N          63.6199   87.2613   13.1833 N.ar    1  UNL1       -0.3068
     14 C          63.5391   89.8675   12.5944 C.3     1  UNL1        0.0565
     15 O          62.5444   90.0756   14.9855 O.3     1  UNL1       -0.3844
     16 C          63.6372   90.3750   14.0025 C.3     1  UNL1        0.1127
     17 H          61.8552   89.5483   14.5521 H       1  UNL1        0.2103
     18 C          64.8280   91.1819   14.4276 C.3     1  UNL1        0.0274
     19 C          64.8907   91.7536   15.8130 C.3     1  UNL1        0.0080
     20 C          66.0816   92.5606   16.2381 C.3     1  UNL1        0.0666
     21 C          67.2097   92.7959   15.2780 C.3     1  UNL1        0.2639
     22 F          68.5172   93.2891   14.7331 F       1  UNL1       -0.2043
     23 F          67.7264   93.5389   16.4741 F       1  UNL1       -0.2043
     24 C          67.1470   92.2242   13.8925 C.3     1  UNL1        0.0666
     25 C          65.9562   91.4172   13.4674 C.3     1  UNL1        0.0080
@<TRIPOS>BOND
     1    15    16    1
     2    16    14    1
     3    14     1    1
     4     1     2    1
     5     2     3   ar
     6     3     4    1
     7     3     5   ar
     8     5     6   ar
     9     6     7   ar
    10     7     8   ar
    11     8     9    1
    12     9    10   ar
    13    10    11   ar
    14    11    12   ar
    15    12    13   ar
    16    16    18    1
    17    18    19    1
    18    19    20    1
    19    20    21    1
    20    21    22    1
    21    21    23    1
    22    21    24    1
    23    24    25    1
    24    13     1    1
    25    25    18    1
    26     8     2   ar
    27    13     9   ar
    28    15    17    1
@<TRIPOS>MOLECULE
*****
 25 28 0 0 0
SMALL
GASTEIGER

@<TRIPOS>ATOM
      1 C          63.1206   90.4896   12.5698 C.3     1  UNL1        0.1140
      2 C          64.1414   91.4698   12.0725 C.ar    1  UNL1        0.0273
      3 C          64.4759   91.9581   10.6942 C.ar    1  UNL1        0.1379
      4 F          63.7144   91.4410    9.5100 F       1  UNL1       -0.2044
      5 C          65.5719   92.9638   10.5003 C.ar    1  UNL1        0.0294
      6 C          66.3334   93.4809   11.6847 C.ar    1  UNL1        0.0023
      7 C          65.9989   92.9925   13.0629 C.ar    1  UNL1        0.0014
      8 C          64.9029   91.9869   13.2569 C.ar    1  UNL1        0.0173
      9 C          64.3528   91.3264   14.4861 C.ar    1  UNL1        0.0804
     10 C          64.4835   91.2379   15.9778 C.ar    1  UNL1        0.1178
     11 N          63.4627   90.2577   16.4751 N.ar    1  UNL1       -0.2223
     12 C          62.7011   89.7405   15.2908 C.ar    1  UNL1        0.1788
     13 N          63.2513   90.4010   14.0615 N.ar    1  UNL1       -0.3068
     14 C          62.1412   89.7312   11.7240 C.3     1  UNL1        0.0565
     15 O          63.2031   87.4622   12.4126 O.3     1  UNL1       -0.3844
     16 C          62.3330   88.2622   11.4890 C.3     1  UNL1        0.1127
     17 H          63.5619   88.0423   13.1022 H       1  UNL1        0.2103
     18 C          61.6547   87.5931   10.3304 C.3     1  UNL1        0.0274
     19 C          62.3907   86.5668    9.5212 C.3     1  UNL1        0.0080
     20 C          61.7125   85.8977    8.3626 C.3     1  UNL1        0.0666
     21 C          60.2982   86.2550    8.0132 C.3     1  UNL1        0.2639
     22 F          58.9806   86.2560    7.2964 F       1  UNL1       -0.2043
     23 F          60.5767   85.2290    6.9551 F       1  UNL1       -0.2043
     24 C          59.5621   87.2814    8.8225 C.3     1  UNL1        0.0666
     25 C          60.2403   87.9505    9.9810 C.3     1  UNL1        0.0080
@<TRIPOS>BOND
     1    15    16    1
     2    16    14    1
     3    14     1    1
     4     1     2    1
     5     2     3   ar
     6     3     4    1
     7     3     5   ar
     8     5     6   ar
     9     6     7   ar
    10     7     8   ar
    11     8     9    1
    12     9    10   ar
    13    10    11   ar
    14    11    12   ar
    15    12    13   ar
    16    16    18    1
    17    18    19    1
    18    19    20    1
    19    20    21    1
    20    21    22    1
    21    21    23    1
    22    21    24    1
    23    24    25    1
    24    13     1    1
    25    25    18    1
    26     8     2   ar
    27    13     9   ar
    28    15    17    1
@<TRIPOS>MOLECULE
*****
 25 28 0 0 0
SMALL
GASTEIGER

@<TRIPOS>ATOM
      1 C          61.7723   88.4370   11.0166 C.3     1  UNL1        0.1140
      2 C          62.2964   87.0807   11.3854 C.ar    1  UNL1        0.0273
      3 C          63.1527   86.6110   12.5239 C.ar    1  UNL1        0.1379
      4 F          63.6378   87.5904   13.5512 F       1  UNL1       -0.2044
      5 C          63.5238   85.1618   12.6350 C.ar    1  UNL1        0.0294
      6 C          63.0387   84.1825   11.6077 C.ar    1  UNL1        0.0023
      7 C          62.1825   84.6522   10.4692 C.ar    1  UNL1        0.0014
      8 C          61.8113   86.1013   10.3580 C.ar    1  UNL1        0.0173
      9 C          60.9874   86.8522    9.3543 C.ar    1  UNL1        0.0804
     10 C          60.1785   86.7110    8.0991 C.ar    1  UNL1        0.1178
     11 N          59.6544   88.0672    7.7304 N.ar    1  UNL1       -0.2223
     12 C          60.1395   89.0466    8.7577 C.ar    1  UNL1        0.1788
     13 N          60.9634   88.2957    9.7614 N.ar    1  UNL1       -0.3068
     14 C          62.0147   89.7108   11.7707 C.3     1  UNL1        0.0565
     15 O          62.8446   91.2495    9.8488 O.3     1  UNL1       -0.3844
     16 C          62.9920   90.7196   11.2444 C.3     1  UNL1        0.1127
     17 H          62.0728   90.8401    9.4274 H       1  UNL1        0.2103
     18 C          64.1169   91.1985   12.1135 C.3     1  UNL1        0.0274
     19 C          64.3040   90.6197   13.4846 C.3     1  UNL1        0.0080
     20 C          65.4289   91.0986   14.3538 C.3     1  UNL1        0.0666
     21 C          66.3665   92.1563   13.8518 C.3     1  UNL1        0.2639
     22 F          67.5067   93.1305   13.8224 F       1  UNL1       -0.2043
     23 F          66.9496   91.9158   15.2127 F       1  UNL1       -0.2043
     24 C          66.1794   92.7351   12.4807 C.3     1  UNL1        0.0666
     25 C          65.0546   92.2562   11.6115 C.3     1  UNL1        0.0080
@<TRIPOS>BOND
     1    15    16    1
     2    16    14    1
     3    14     1    1
     4     1     2    1
     5     2     3   ar
     6     3     4    1
     7     3     5   ar
     8     5     6   ar
     9     6     7   ar
    10     7     8   ar
    11     8     9    1
    12     9    10   ar
    13    10    11   ar
    14    11    12   ar
    15    12    13   ar
    16    16    18    1
    17    18    19    1
    18    19    20    1
    19    20    21    1
    20    21    22    1
    21    21    23    1
    22    21    24    1
    23    24    25    1
    24    13     1    1
    25    25    18    1
    26     8     2   ar
    27    13     9   ar
    28    15    17    1
@<TRIPOS>MOLECULE
*****
 25 28 0 0 0
SMALL
GASTEIGER

@<TRIPOS>ATOM
      1 C          63.7065   88.6477   13.2222 C.3     1  UNL1        0.1140
      2 C          63.4085   87.2003   12.9644 C.ar    1  UNL1        0.0273
      3 C          63.7484   85.9543   13.7271 C.ar    1  UNL1        0.1379
      4 F          64.5304   86.0462   15.0037 F       1  UNL1       -0.2044
      5 C          63.3060   84.6162   13.2132 C.ar    1  UNL1        0.0294
      6 C          62.5240   84.5244   11.9365 C.ar    1  UNL1        0.0023
      7 C          62.1841   85.7704   11.1738 C.ar    1  UNL1        0.0014
      8 C          62.6264   87.1085   11.6877 C.ar    1  UNL1        0.0173
      9 C          62.4410   88.4990   11.1565 C.ar    1  UNL1        0.0804
     10 C          61.8430   89.3015   10.0392 C.ar    1  UNL1        0.1178
     11 N          62.1410   90.7488   10.2971 N.ar    1  UNL1       -0.2223
     12 C          62.9231   90.8408   11.5738 C.ar    1  UNL1        0.1788
     13 N          63.1085   89.4503   12.1049 N.ar    1  UNL1       -0.3068
     14 C          64.4686   89.1962   14.3920 C.3     1  UNL1        0.0565
     15 O          63.1364   91.3932   14.7773 O.3     1  UNL1       -0.3844
     16 C          64.4460   90.6684   14.6781 C.3     1  UNL1        0.1127
     17 H          62.4091   90.7681   14.6321 H       1  UNL1        0.2103
     18 C          65.7329   91.4160   14.8652 C.3     1  UNL1        0.0274
     19 C          65.9115   92.3168   16.0511 C.3     1  UNL1        0.0080
     20 C          67.1985   93.0643   16.2382 C.3     1  UNL1        0.0666
     21 C          68.3068   92.9110   15.2392 C.3     1  UNL1        0.2639
     22 F          69.6377   93.0924   14.5716 F       1  UNL1       -0.2043
     23 F          68.9476   93.8748   16.1934 F       1  UNL1       -0.2043
     24 C          68.1283   92.0102   14.0531 C.3     1  UNL1        0.0666
     25 C          66.8414   91.2626   13.8661 C.3     1  UNL1        0.0080
@<TRIPOS>BOND
     1    15    16    1
     2    16    14    1
     3    14     1    1
     4     1     2    1
     5     2     3   ar
     6     3     4    1
     7     3     5   ar
     8     5     6   ar
     9     6     7   ar
    10     7     8   ar
    11     8     9    1
    12     9    10   ar
    13    10    11   ar
    14    11    12   ar
    15    12    13   ar
    16    16    18    1
    17    18    19    1
    18    19    20    1
    19    20    21    1
    20    21    22    1
    21    21    23    1
    22    21    24    1
    23    24    25    1
    24    13     1    1
    25    25    18    1
    26     8     2   ar
    27    13     9   ar
    28    15    17    1
@<TRIPOS>MOLECULE
*****
 25 28 0 0 0
SMALL
GASTEIGER

@<TRIPOS>ATOM
      1 C          63.1933   88.3309   12.1450 C.3     1  UNL1        0.1140
      2 C          63.4768   87.1628   13.0424 C.ar    1  UNL1        0.0273
      3 C          63.3106   85.6847   12.8487 C.ar    1  UNL1        0.1379
      4 F          62.7674   85.1542   11.5551 F       1  UNL1       -0.2044
      5 C          63.6875   84.7371   13.9488 C.ar    1  UNL1        0.0294
      6 C          64.2306   85.2677   15.2424 C.ar    1  UNL1        0.0023
      7 C          64.3968   86.7458   15.4361 C.ar    1  UNL1        0.0014
      8 C          64.0200   87.6934   14.3361 C.ar    1  UNL1        0.0173
      9 C          64.0721   89.1893   14.2382 C.ar    1  UNL1        0.0804
     10 C          64.4401   90.4417   14.9772 C.ar    1  UNL1        0.1178
     11 N          64.1565   91.6097   14.0798 N.ar    1  UNL1       -0.2223
     12 C          63.6134   91.0792   12.7861 C.ar    1  UNL1        0.1788
     13 N          63.5612   89.5833   12.8840 N.ar    1  UNL1       -0.3068
     14 C          62.6392   88.2591   10.7529 C.3     1  UNL1        0.0565
     15 O          60.3351   87.2318   11.3743 O.3     1  UNL1       -0.3844
     16 C          61.5077   87.3243   10.4434 C.3     1  UNL1        0.1127
     17 H          60.4662   87.8375   12.1206 H       1  UNL1        0.2103
     18 C          61.5488   86.4820    9.2029 C.3     1  UNL1        0.0274
     19 C          60.2889   86.2202    8.4320 C.3     1  UNL1        0.0080
     20 C          60.3300   85.3779    7.1916 C.3     1  UNL1        0.0666
     21 C          61.6309   84.7972    6.7220 C.3     1  UNL1        0.2639
     22 F          62.6127   84.0336    5.8837 F       1  UNL1       -0.2043
     23 F          60.7120   84.2703    5.6600 F       1  UNL1       -0.2043
     24 C          62.8908   85.0589    7.4929 C.3     1  UNL1        0.0666
     25 C          62.8497   85.9013    8.7334 C.3     1  UNL1        0.0080
@<TRIPOS>BOND
     1    15    16    1
     2    16    14    1
     3    14     1    1
     4     1     2    1
     5     2     3   ar
     6     3     4    1
     7     3     5   ar
     8     5     6   ar
     9     6     7   ar
    10     7     8   ar
    11     8     9    1
    12     9    10   ar
    13    10    11   ar
    14    11    12   ar
    15    12    13   ar
    16    16    18    1
    17    18    19    1
    18    19    20    1
    19    20    21    1
    20    21    22    1
    21    21    23    1
    22    21    24    1
    23    24    25    1
    24    13     1    1
    25    25    18    1
    26     8     2   ar
    27    13     9   ar
    28    15    17    1
