@<TRIPOS>MOLECULE
*****
 36 40 0 0 0
SMALL
GASTEIGER

@<TRIPOS>ATOM
      1 C          64.1779   90.7438   12.2109 C.ar    1  UNL1        0.0113
      2 C          63.4410   91.5368   11.1726 C.ar    1  UNL1        0.0001
      3 C          62.3988   90.8732   10.3221 C.ar    1  UNL1        0.0170
      4 C          62.0934   89.4167   10.5100 C.ar    1  UNL1        0.0625
      5 C          62.8303   88.6237   11.5483 C.ar    1  UNL1        0.0158
      6 C          63.8725   89.2873   12.3988 C.ar    1  UNL1        0.0001
      7 C          62.5249   87.1672   11.7362 C.ar    1  UNL1        0.0058
      8 C          61.4827   86.5036   10.8857 C.ar    1  UNL1        0.0608
      9 C          60.7457   87.2966    9.8473 C.ar    1  UNL1        0.2610
     10 O          59.7035   86.6330    8.9968 O.2     1  UNL1       -0.2670
     11 N          61.0511   88.7531    9.6594 N.ar    1  UNL1       -0.2935
     12 C          60.3142   89.5461    8.6211 C.3     1  UNL1        0.1335
     13 C          63.2618   86.3743   12.7745 C.ar    1  UNL1       -0.0029
     14 C          63.8751   87.0695   13.9537 C.ar    1  UNL1       -0.0003
     15 C          64.6120   86.2765   14.9921 C.ar    1  UNL1        0.0008
     16 C          64.7356   84.7883   14.8512 C.ar    1  UNL1        0.0111
     17 C          64.1224   84.0930   13.6720 C.ar    1  UNL1        0.0537
     18 CL         64.2460   82.6047   13.5311 Cl      1  UNL1       -0.0826
     19 C          63.3855   84.8860   12.6336 C.ar    1  UNL1       -0.0113
     20 C          62.7722   84.1907   11.4544 C.3     1  UNL1        0.0319
     21 C          65.2202   91.4074   13.0614 C.3     1  UNL1        0.1647
     22 C          66.2625   92.0710   13.9119 C.ar    1  UNL1        0.0112
     23 C          66.3712   93.5669   13.9343 C.ar    1  UNL1       -0.0005
     24 C          67.4135   94.2305   14.7847 C.ar    1  UNL1        0.0112
     25 C          68.3471   93.3982   15.6128 C.ar    1  UNL1        0.0577
     26 CL         69.3893   94.0617   16.4633 Cl      1  UNL1       -0.0822
     27 C          68.2384   91.9023   15.5905 C.ar    1  UNL1        0.0112
     28 C          67.1960   91.2387   14.7400 C.ar    1  UNL1       -0.0005
     29 C          65.6215   92.2666   11.8993 C.ar    1  UNL1        0.0901
     30 C          64.7558   93.2807   11.2121 C.ar    1  UNL1        0.1163
     31 N          65.5583   93.9035   10.1083 N.ar    1  UNL1       -0.2226
     32 C          66.9199   93.2742   10.1133 C.ar    1  UNL1        0.1784
     33 N          66.9590   92.2626   11.2201 N.ar    1  UNL1       -0.3080
     34 C          68.1299   91.3986   11.5840 C.3     1  UNL1        0.1318
     35 C          63.8940   91.0901   15.2729 C.3     1  UNL1        0.1753
     36 O          64.8189   90.5482   14.2236 O.3     1  UNL1       -0.3422
@<TRIPOS>BOND
     1    35    36    1
     2    21    36    1
     3    21    22    1
     4    22    23   ar
     5    23    24   ar
     6    24    25   ar
     7    25    26    1
     8    25    27   ar
     9    27    28   ar
    10    21     1    1
    11     1     2   ar
    12     2     3   ar
    13     3     4   ar
    14     4     5   ar
    15     5     6   ar
    16     5     7   ar
    17     7    13    1
    18    13    14   ar
    19    14    15   ar
    20    15    16   ar
    21    16    17   ar
    22    17    18    1
    23    17    19   ar
    24    19    20    1
    25     7     8   ar
    26     8     9   ar
    27     9    10    2
    28     9    11   ar
    29    11    12    1
    30    21    29    1
    31    29    30   ar
    32    30    31   ar
    33    31    32   ar
    34    32    33   ar
    35    33    34    1
    36    28    22   ar
    37     6     1   ar
    38    19    13   ar
    39    33    29   ar
    40    11     4   ar
@<TRIPOS>MOLECULE
*****
 36 40 0 0 0
SMALL
GASTEIGER

@<TRIPOS>ATOM
      1 C          63.4941   90.1277   12.0610 C.ar    1  UNL1        0.0113
      2 C          62.7135   91.0287   11.1507 C.ar    1  UNL1        0.0001
      3 C          61.7087   90.4472   10.2009 C.ar    1  UNL1        0.0170
      4 C          61.4846   88.9645   10.1614 C.ar    1  UNL1        0.0625
      5 C          62.2652   88.0635   11.0717 C.ar    1  UNL1        0.0158
      6 C          63.2700   88.6451   12.0215 C.ar    1  UNL1        0.0001
      7 C          62.0411   86.5808   11.0321 C.ar    1  UNL1        0.0058
      8 C          61.0364   85.9993   10.0823 C.ar    1  UNL1        0.0608
      9 C          60.2556   86.9003    9.1720 C.ar    1  UNL1        0.2610
     10 O          59.2509   86.3187    8.2222 O.2     1  UNL1       -0.2670
     11 N          60.4798   88.3830    9.2115 N.ar    1  UNL1       -0.2935
     12 C          59.6991   89.2840    8.3012 C.3     1  UNL1        0.1335
     13 C          62.8217   85.6798   11.9424 C.ar    1  UNL1       -0.0029
     14 C          62.9595   86.0199   13.3968 C.ar    1  UNL1       -0.0003
     15 C          63.7401   85.1187   14.3071 C.ar    1  UNL1        0.0008
     16 C          64.3831   83.8776   13.7630 C.ar    1  UNL1        0.0111
     17 C          64.2454   83.5375   12.3085 C.ar    1  UNL1        0.0537
     18 CL         64.8883   82.2963   11.7644 Cl      1  UNL1       -0.0826
     19 C          63.4647   84.4386   11.3983 C.ar    1  UNL1       -0.0113
     20 C          63.3270   84.0985    9.9438 C.3     1  UNL1        0.0319
     21 C          64.4989   90.7093   13.0109 C.3     1  UNL1        0.1647
     22 C          65.5036   91.2908   13.9608 C.ar    1  UNL1        0.0112
     23 C          65.0502   91.8828   15.2623 C.ar    1  UNL1       -0.0005
     24 C          66.0550   92.4643   16.2122 C.ar    1  UNL1        0.0112
     25 C          67.5131   92.4538   15.8606 C.ar    1  UNL1        0.0577
     26 CL         68.5179   93.0353   16.8104 Cl      1  UNL1       -0.0822
     27 C          67.9666   91.8619   14.5591 C.ar    1  UNL1        0.0112
     28 C          66.9618   91.2803   13.6091 C.ar    1  UNL1       -0.0005
     29 C          63.7956   90.0486   14.1593 C.ar    1  UNL1        0.0901
     30 C          62.4708   90.4550   14.7334 C.ar    1  UNL1        0.1163
     31 N          62.1500   89.5230   15.8642 N.ar    1  UNL1       -0.2226
     32 C          63.2767   88.5406   15.9889 C.ar    1  UNL1        0.1784
     33 N          64.2937   88.8654   14.9353 N.ar    1  UNL1       -0.3080
     34 C          65.5825   88.1352   14.6990 C.3     1  UNL1        0.1318
     35 C          65.2799   92.8662   11.7913 C.3     1  UNL1        0.1753
     36 O          65.2022   91.3699   11.8625 O.3     1  UNL1       -0.3422
@<TRIPOS>BOND
     1    35    36    1
     2    21    36    1
     3    21    22    1
     4    22    23   ar
     5    23    24   ar
     6    24    25   ar
     7    25    26    1
     8    25    27   ar
     9    27    28   ar
    10    21     1    1
    11     1     2   ar
    12     2     3   ar
    13     3     4   ar
    14     4     5   ar
    15     5     6   ar
    16     5     7   ar
    17     7    13    1
    18    13    14   ar
    19    14    15   ar
    20    15    16   ar
    21    16    17   ar
    22    17    18    1
    23    17    19   ar
    24    19    20    1
    25     7     8   ar
    26     8     9   ar
    27     9    10    2
    28     9    11   ar
    29    11    12    1
    30    21    29    1
    31    29    30   ar
    32    30    31   ar
    33    31    32   ar
    34    32    33   ar
    35    33    34    1
    36    28    22   ar
    37     6     1   ar
    38    19    13   ar
    39    33    29   ar
    40    11     4   ar
@<TRIPOS>MOLECULE
*****
 36 40 0 0 0
SMALL
GASTEIGER

@<TRIPOS>ATOM
      1 C          63.0064   85.7932   12.7676 C.ar    1  UNL1        0.0113
      2 C          63.7835   86.6662   13.7078 C.ar    1  UNL1        0.0001
      3 C          63.9403   88.1292   13.4162 C.ar    1  UNL1        0.0170
      4 C          63.3200   88.7192   12.1846 C.ar    1  UNL1        0.0625
      5 C          62.5428   87.8462   11.2444 C.ar    1  UNL1        0.0158
      6 C          62.3860   86.3833   11.5360 C.ar    1  UNL1        0.0001
      7 C          61.9224   88.4363   10.0128 C.ar    1  UNL1        0.0058
      8 C          62.0792   89.8993    9.7212 C.ar    1  UNL1        0.0608
      9 C          62.8564   90.7723   10.6614 C.ar    1  UNL1        0.2610
     10 O          63.0132   92.2353   10.3699 O.2     1  UNL1       -0.2670
     11 N          63.4768   90.1823   11.8931 N.ar    1  UNL1       -0.2935
     12 C          64.2540   91.0552   12.8332 C.3     1  UNL1        0.1335
     13 C          61.1453   87.5633    9.0726 C.ar    1  UNL1       -0.0029
     14 C          59.6743   87.7879    8.8835 C.ar    1  UNL1       -0.0003
     15 C          58.8971   86.9148    7.9433 C.ar    1  UNL1        0.0008
     16 C          59.5909   85.8173    7.1923 C.ar    1  UNL1        0.0111
     17 C          61.0619   85.5928    7.3814 C.ar    1  UNL1        0.0537
     18 CL         61.7557   84.4952    6.6303 Cl      1  UNL1       -0.0826
     19 C          61.8391   86.4658    8.3215 C.ar    1  UNL1       -0.0113
     20 C          63.3101   86.2412    8.5107 C.3     1  UNL1        0.0319
     21 C          62.8495   84.3302   13.0591 C.3     1  UNL1        0.1647
     22 C          62.6927   82.8672   13.3507 C.ar    1  UNL1        0.0112
     23 C          61.3331   82.3003   13.6338 C.ar    1  UNL1       -0.0005
     24 C          61.1762   80.8374   13.9253 C.ar    1  UNL1        0.0112
     25 C          62.3790   79.9411   13.9338 C.ar    1  UNL1        0.0577
     26 CL         62.2222   78.4782   14.2253 Cl      1  UNL1       -0.0822
     27 C          63.7386   80.5079   13.6507 C.ar    1  UNL1        0.0112
     28 C          63.8955   81.9710   13.3591 C.ar    1  UNL1       -0.0005
     29 C          62.9460   84.6127   14.5291 C.ar    1  UNL1        0.0901
     30 C          61.7921   84.8259   15.4635 C.ar    1  UNL1        0.1163
     31 N          62.3463   85.0767   16.8348 N.ar    1  UNL1       -0.2226
     32 C          63.8427   85.0185   16.7477 C.ar    1  UNL1        0.1784
     33 N          64.2133   84.7318   15.3228 N.ar    1  UNL1       -0.3080
     34 C          65.6066   84.5892   14.7857 C.3     1  UNL1        0.1318
     35 C          63.9250   83.4606   10.8598 C.3     1  UNL1        0.1753
     36 O          62.7531   84.0476   11.5892 O.3     1  UNL1       -0.3422
@<TRIPOS>BOND
     1    35    36    1
     2    21    36    1
     3    21    22    1
     4    22    23   ar
     5    23    24   ar
     6    24    25   ar
     7    25    26    1
     8    25    27   ar
     9    27    28   ar
    10    21     1    1
    11     1     2   ar
    12     2     3   ar
    13     3     4   ar
    14     4     5   ar
    15     5     6   ar
    16     5     7   ar
    17     7    13    1
    18    13    14   ar
    19    14    15   ar
    20    15    16   ar
    21    16    17   ar
    22    17    18    1
    23    17    19   ar
    24    19    20    1
    25     7     8   ar
    26     8     9   ar
    27     9    10    2
    28     9    11   ar
    29    11    12    1
    30    21    29    1
    31    29    30   ar
    32    30    31   ar
    33    31    32   ar
    34    32    33   ar
    35    33    34    1
    36    28    22   ar
    37     6     1   ar
    38    19    13   ar
    39    33    29   ar
    40    11     4   ar
@<TRIPOS>MOLECULE
*****
 36 40 0 0 0
SMALL
GASTEIGER

@<TRIPOS>ATOM
      1 C          62.9157   85.4858   13.1600 C.ar    1  UNL1        0.0113
      2 C          63.7286   86.2582   14.1562 C.ar    1  UNL1        0.0001
      3 C          64.0045   87.7152   13.9306 C.ar    1  UNL1        0.0170
      4 C          63.4674   88.3998   12.7088 C.ar    1  UNL1        0.0625
      5 C          62.6544   87.6274   11.7126 C.ar    1  UNL1        0.0158
      6 C          62.3786   86.1704   11.9382 C.ar    1  UNL1        0.0001
      7 C          62.1173   88.3120   10.4908 C.ar    1  UNL1        0.0058
      8 C          62.3932   89.7690   10.2652 C.ar    1  UNL1        0.0608
      9 C          63.2061   90.5415   11.2614 C.ar    1  UNL1        0.2610
     10 O          63.4820   91.9986   11.0358 O.2     1  UNL1       -0.2670
     11 N          63.7432   89.8569   12.4832 N.ar    1  UNL1       -0.2935
     12 C          64.5562   90.6294   13.4794 C.3     1  UNL1        0.1335
     13 C          61.3044   87.5396    9.4946 C.ar    1  UNL1       -0.0029
     14 C          59.8241   87.7629    9.4001 C.ar    1  UNL1       -0.0003
     15 C          59.0112   86.9904    8.4039 C.ar    1  UNL1        0.0008
     16 C          59.6785   85.9947    7.5021 C.ar    1  UNL1        0.0111
     17 C          61.1588   85.7714    7.5966 C.ar    1  UNL1        0.0537
     18 CL         61.8261   84.7757    6.6947 Cl      1  UNL1       -0.0826
     19 C          61.9717   86.5438    8.5928 C.ar    1  UNL1       -0.0113
     20 C          63.4520   86.3206    8.6872 C.3     1  UNL1        0.0319
     21 C          62.6398   84.0287   13.3856 C.3     1  UNL1        0.1647
     22 C          62.3640   82.5717   13.6112 C.ar    1  UNL1        0.0112
     23 C          60.9677   82.1095   13.9060 C.ar    1  UNL1       -0.0005
     24 C          60.6919   80.6525   14.1315 C.ar    1  UNL1        0.0112
     25 C          61.8122   79.6575   14.0623 C.ar    1  UNL1        0.0577
     26 CL         61.5364   78.2005   14.2878 Cl      1  UNL1       -0.0822
     27 C          63.2085   80.1196   13.7675 C.ar    1  UNL1        0.0112
     28 C          63.4844   81.5767   13.5419 C.ar    1  UNL1       -0.0005
     29 C          63.2623   83.7056   12.0597 C.ar    1  UNL1        0.0901
     30 C          62.5278   83.4933   10.7692 C.ar    1  UNL1        0.1163
     31 N          63.5402   83.1946    9.7033 N.ar    1  UNL1       -0.2226
     32 C          64.9004   83.2222   10.3352 C.ar    1  UNL1        0.1784
     33 N          64.7287   83.5381   11.7915 N.ar    1  UNL1       -0.3080
     34 C          65.8298   83.6642   12.8022 C.3     1  UNL1        0.1318
     35 C          62.7777   84.0967   15.9791 C.3     1  UNL1        0.1753
     36 O          62.0173   84.3518   14.7116 O.3     1  UNL1       -0.3422
@<TRIPOS>BOND
     1    35    36    1
     2    21    36    1
     3    21    22    1
     4    22    23   ar
     5    23    24   ar
     6    24    25   ar
     7    25    26    1
     8    25    27   ar
     9    27    28   ar
    10    21     1    1
    11     1     2   ar
    12     2     3   ar
    13     3     4   ar
    14     4     5   ar
    15     5     6   ar
    16     5     7   ar
    17     7    13    1
    18    13    14   ar
    19    14    15   ar
    20    15    16   ar
    21    16    17   ar
    22    17    18    1
    23    17    19   ar
    24    19    20    1
    25     7     8   ar
    26     8     9   ar
    27     9    10    2
    28     9    11   ar
    29    11    12    1
    30    21    29    1
    31    29    30   ar
    32    30    31   ar
    33    31    32   ar
    34    32    33   ar
    35    33    34    1
    36    28    22   ar
    37     6     1   ar
    38    19    13   ar
    39    33    29   ar
    40    11     4   ar
@<TRIPOS>MOLECULE
*****
 36 40 0 0 0
SMALL
GASTEIGER

@<TRIPOS>ATOM
      1 C          63.2602   85.6667   13.5460 C.ar    1  UNL1        0.0113
      2 C          63.9966   86.3612   14.6529 C.ar    1  UNL1        0.0001
      3 C          64.3150   87.8227   14.5403 C.ar    1  UNL1        0.0170
      4 C          63.8970   88.5896   13.3208 C.ar    1  UNL1        0.0625
      5 C          63.1605   87.8951   12.2140 C.ar    1  UNL1        0.0158
      6 C          62.8421   86.4336   12.3266 C.ar    1  UNL1        0.0001
      7 C          62.7425   88.6620   10.9945 C.ar    1  UNL1        0.0058
      8 C          63.0608   90.1234   10.8819 C.ar    1  UNL1        0.0608
      9 C          63.7973   90.8181   11.9888 C.ar    1  UNL1        0.2610
     10 O          64.1157   92.2795   11.8763 O.2     1  UNL1       -0.2670
     11 N          64.2154   90.0511   13.2083 N.ar    1  UNL1       -0.2935
     12 C          64.9518   90.7457   14.3152 C.3     1  UNL1        0.1335
     13 C          62.0060   87.9674    9.8876 C.ar    1  UNL1       -0.0029
     14 C          62.5905   86.7409    9.2520 C.ar    1  UNL1       -0.0003
     15 C          61.8540   86.0463    8.1451 C.ar    1  UNL1        0.0008
     16 C          60.5331   86.5783    7.6738 C.ar    1  UNL1        0.0111
     17 C          59.9486   87.8049    8.3094 C.ar    1  UNL1        0.0537
     18 CL         58.6276   88.3369    7.8381 Cl      1  UNL1       -0.0826
     19 C          60.6850   88.4994    9.4163 C.ar    1  UNL1       -0.0113
     20 C          60.1006   89.7260   10.0519 C.3     1  UNL1        0.0319
     21 C          62.9418   84.2052   13.6585 C.3     1  UNL1        0.1647
     22 C          62.6234   82.7437   13.7710 C.ar    1  UNL1        0.0112
     23 C          63.7166   81.7254   13.6362 C.ar    1  UNL1       -0.0005
     24 C          63.3982   80.2639   13.7486 C.ar    1  UNL1        0.0112
     25 C          61.9867   79.8207   13.9960 C.ar    1  UNL1        0.0577
     26 CL         61.6683   78.3592   14.1085 Cl      1  UNL1       -0.0822
     27 C          60.8935   80.8389   14.1309 C.ar    1  UNL1        0.0112
     28 C          61.2119   82.3004   14.0184 C.ar    1  UNL1       -0.0005
     29 C          63.6213   83.9560   12.3448 C.ar    1  UNL1        0.0901
     30 C          65.0808   83.6717   12.1469 C.ar    1  UNL1        0.1163
     31 N          65.3222   83.4873   10.6779 N.ar    1  UNL1       -0.2226
     32 C          64.0119   83.6577    9.9679 C.ar    1  UNL1        0.1784
     33 N          62.9607   83.9474   10.9980 N.ar    1  UNL1       -0.3080
     34 C          61.5046   84.1864   10.7288 C.3     1  UNL1        0.1318
     35 C          62.9788   84.1559   16.2559 C.3     1  UNL1        0.1753
     36 O          62.2622   84.4543   14.9723 O.3     1  UNL1       -0.3422
@<TRIPOS>BOND
     1    35    36    1
     2    21    36    1
     3    21    22    1
     4    22    23   ar
     5    23    24   ar
     6    24    25   ar
     7    25    26    1
     8    25    27   ar
     9    27    28   ar
    10    21     1    1
    11     1     2   ar
    12     2     3   ar
    13     3     4   ar
    14     4     5   ar
    15     5     6   ar
    16     5     7   ar
    17     7    13    1
    18    13    14   ar
    19    14    15   ar
    20    15    16   ar
    21    16    17   ar
    22    17    18    1
    23    17    19   ar
    24    19    20    1
    25     7     8   ar
    26     8     9   ar
    27     9    10    2
    28     9    11   ar
    29    11    12    1
    30    21    29    1
    31    29    30   ar
    32    30    31   ar
    33    31    32   ar
    34    32    33   ar
    35    33    34    1
    36    28    22   ar
    37     6     1   ar
    38    19    13   ar
    39    33    29   ar
    40    11     4   ar
