@<TRIPOS>MOLECULE
*****
 21 23 0 0 0
SMALL
GASTEIGER

@<TRIPOS>ATOM
      1 C          66.2179   92.3411   13.6298 C.3     1  UNL1        0.0591
      2 C          65.5889   92.5371   12.2822 C.3     1  UNL1        0.0418
      3 C          64.4793   91.6328   11.8337 C.ar    1  UNL1       -0.0245
      4 C          63.8504   91.8287   10.4862 C.ar    1  UNL1       -0.0045
      5 C          62.7408   90.9245   10.0378 C.ar    1  UNL1       -0.0003
      6 C          62.2601   89.8243   10.9370 C.ar    1  UNL1       -0.0003
      7 C          62.8891   89.6283   12.2845 C.ar    1  UNL1       -0.0043
      8 C          63.9986   90.5326   12.7329 C.ar    1  UNL1       -0.0223
      9 C          64.6276   90.3367   14.0806 C.3     1  UNL1        0.0456
     10 C          65.7372   91.2409   14.5289 C.3     1  UNL1        0.0248
     11 C          64.1470   89.2364   14.9797 C.ar    1  UNL1       -0.0175
     12 C          63.3546   89.5657   16.2101 C.ar    1  UNL1       -0.0030
     13 C          62.8739   88.4655   17.1093 C.ar    1  UNL1        0.0119
     14 C          63.1857   87.0360   16.7781 C.ar    1  UNL1        0.0682
     15 CL         62.7051   85.9358   17.6773 Cl      1  UNL1       -0.0814
     16 C          63.9781   86.7069   15.5478 C.ar    1  UNL1        0.0679
     17 CL         64.2898   85.2775   15.2166 Cl      1  UNL1       -0.0814
     18 C          64.4587   87.8071   14.6486 C.ar    1  UNL1        0.0083
     19 C          67.6754   93.3406   15.5342 C.3     1  UNL1        0.0859
     20 N          67.3275   93.2454   14.0782 N.3     1  UNL1       -0.2971
     21 H          68.1711   92.9391   13.5934 H       1  UNL1        0.1233
@<TRIPOS>BOND
     1    19    20    1
     2     1    20    1
     3     1     2    1
     4     2     3    1
     5     3     4   ar
     6     4     5   ar
     7     5     6   ar
     8     6     7   ar
     9     7     8   ar
    10     8     9    1
    11     9    11    1
    12    11    12   ar
    13    12    13   ar
    14    13    14   ar
    15    14    15    1
    16    14    16   ar
    17    16    17    1
    18    16    18   ar
    19     9    10    1
    20    10     1    1
    21     8     3   ar
    22    18    11   ar
    23    20    21    1
@<TRIPOS>MOLECULE
*****
 21 23 0 0 0
SMALL
GASTEIGER

@<TRIPOS>ATOM
      1 C          62.2702   89.6421   11.2596 C.3     1  UNL1        0.0591
      2 C          61.3155   89.8887   10.1293 C.3     1  UNL1        0.0418
      3 C          60.7659   88.7334    9.3461 C.ar    1  UNL1       -0.0245
      4 C          59.8112   88.9801    8.2158 C.ar    1  UNL1       -0.0045
      5 C          59.2616   87.8248    7.4327 C.ar    1  UNL1       -0.0003
      6 C          59.6668   86.4229    7.7799 C.ar    1  UNL1       -0.0003
      7 C          60.6215   86.1763    8.9102 C.ar    1  UNL1       -0.0043
      8 C          61.1710   87.3316    9.6933 C.ar    1  UNL1       -0.0223
      9 C          62.1258   87.0850   10.8237 C.3     1  UNL1        0.0456
     10 C          62.6753   88.2402   11.6068 C.3     1  UNL1        0.0248
     11 C          62.5310   85.6831   11.1709 C.ar    1  UNL1       -0.0175
     12 C          63.1635   84.8059   10.1314 C.ar    1  UNL1       -0.0030
     13 C          63.5686   83.4040   10.4786 C.ar    1  UNL1        0.0119
     14 C          63.3413   82.8793   11.8653 C.ar    1  UNL1        0.0682
     15 CL         63.7464   81.4774   12.2125 Cl      1  UNL1       -0.0814
     16 C          62.7088   83.7565   12.9048 C.ar    1  UNL1        0.0679
     17 CL         62.4814   83.2317   14.2916 Cl      1  UNL1       -0.0814
     18 C          62.3036   85.1583   12.5576 C.ar    1  UNL1        0.0083
     19 C          63.8860   90.5662   13.0721 C.3     1  UNL1        0.0859
     20 N          62.8198   90.7974   12.0428 N.3     1  UNL1       -0.2971
     21 H          63.2026   91.4569   11.3653 H       1  UNL1        0.1233
@<TRIPOS>BOND
     1    19    20    1
     2     1    20    1
     3     1     2    1
     4     2     3    1
     5     3     4   ar
     6     4     5   ar
     7     5     6   ar
     8     6     7   ar
     9     7     8   ar
    10     8     9    1
    11     9    11    1
    12    11    12   ar
    13    12    13   ar
    14    13    14   ar
    15    14    15    1
    16    14    16   ar
    17    16    17    1
    18    16    18   ar
    19     9    10    1
    20    10     1    1
    21     8     3   ar
    22    18    11   ar
    23    20    21    1
@<TRIPOS>MOLECULE
*****
 21 23 0 0 0
SMALL
GASTEIGER

@<TRIPOS>ATOM
      1 C          64.0984   85.5728   14.2722 C.3     1  UNL1        0.0591
      2 C          64.5523   86.9127   14.7706 C.3     1  UNL1        0.0418
      3 C          64.1880   88.1566   14.0155 C.ar    1  UNL1       -0.0245
      4 C          64.6420   89.4966   14.5139 C.ar    1  UNL1       -0.0045
      5 C          64.2777   90.7404   13.7588 C.ar    1  UNL1       -0.0003
      6 C          63.4595   90.6442   12.5053 C.ar    1  UNL1       -0.0003
      7 C          63.0056   89.3043   12.0069 C.ar    1  UNL1       -0.0043
      8 C          63.3698   88.0605   12.7620 C.ar    1  UNL1       -0.0223
      9 C          62.9159   86.7205   12.2636 C.3     1  UNL1        0.0456
     10 C          63.2802   85.4767   13.0187 C.3     1  UNL1        0.0248
     11 C          62.0977   86.6243   11.0101 C.ar    1  UNL1       -0.0175
     12 C          60.7415   87.2624   10.9489 C.ar    1  UNL1       -0.0030
     13 C          59.9233   87.1663    9.6954 C.ar    1  UNL1        0.0119
     14 C          60.4613   86.4321    8.5031 C.ar    1  UNL1        0.0682
     15 CL         59.6431   86.3359    7.2495 Cl      1  UNL1       -0.0814
     16 C          61.8174   85.7940    8.5643 C.ar    1  UNL1        0.0679
     17 CL         62.3554   85.0598    7.3720 Cl      1  UNL1       -0.0814
     18 C          62.6356   85.8902    9.8178 C.ar    1  UNL1        0.0083
     19 C          63.6181   83.0965   14.8944 C.3     1  UNL1        0.0859
     20 N          64.4626   84.3289   15.0273 N.3     1  UNL1       -0.2971
     21 H          65.4056   84.0726   14.7351 H       1  UNL1        0.1233
@<TRIPOS>BOND
     1    19    20    1
     2     1    20    1
     3     1     2    1
     4     2     3    1
     5     3     4   ar
     6     4     5   ar
     7     5     6   ar
     8     6     7   ar
     9     7     8   ar
    10     8     9    1
    11     9    11    1
    12    11    12   ar
    13    12    13   ar
    14    13    14   ar
    15    14    15    1
    16    14    16   ar
    17    16    17    1
    18    16    18   ar
    19     9    10    1
    20    10     1    1
    21     8     3   ar
    22    18    11   ar
    23    20    21    1
@<TRIPOS>MOLECULE
*****
 21 23 0 0 0
SMALL
GASTEIGER

@<TRIPOS>ATOM
      1 C          63.6074   90.3634   15.1704 C.3     1  UNL1        0.0591
      2 C          64.7126   91.3370   14.8866 C.3     1  UNL1        0.0418
      3 C          64.9812   91.7771   13.4779 C.ar    1  UNL1       -0.0245
      4 C          66.0864   92.7507   13.1942 C.ar    1  UNL1       -0.0045
      5 C          66.3550   93.1907   11.7856 C.ar    1  UNL1       -0.0003
      6 C          65.5184   92.6570   10.6607 C.ar    1  UNL1       -0.0003
      7 C          64.4132   91.6834   10.9445 C.ar    1  UNL1       -0.0043
      8 C          64.1446   91.2434   12.3531 C.ar    1  UNL1       -0.0223
      9 C          63.0393   90.2698   12.6369 C.3     1  UNL1        0.0456
     10 C          62.7708   89.8298   14.0455 C.3     1  UNL1        0.0248
     11 C          62.2027   89.7362   11.5120 C.ar    1  UNL1       -0.0175
     12 C          60.9913   90.4930   11.0539 C.ar    1  UNL1       -0.0030
     13 C          60.1547   89.9594    9.9290 C.ar    1  UNL1        0.0119
     14 C          60.5295   88.6689    9.2623 C.ar    1  UNL1        0.0682
     15 CL         59.6928   88.1353    8.1375 Cl      1  UNL1       -0.0814
     16 C          61.7408   87.9122    9.7205 C.ar    1  UNL1        0.0679
     17 CL         62.1155   86.6217    9.0538 Cl      1  UNL1       -0.0814
     18 C          62.5774   88.4458   10.8454 C.ar    1  UNL1        0.0083
     19 C          63.0896   88.4747   16.8776 C.3     1  UNL1        0.0859
     20 N          63.3388   89.9234   16.5790 N.3     1  UNL1       -0.2971
     21 H          64.1472   90.2036   17.1343 H       1  UNL1        0.1233
@<TRIPOS>BOND
     1    19    20    1
     2     1    20    1
     3     1     2    1
     4     2     3    1
     5     3     4   ar
     6     4     5   ar
     7     5     6   ar
     8     6     7   ar
     9     7     8   ar
    10     8     9    1
    11     9    11    1
    12    11    12   ar
    13    12    13   ar
    14    13    14   ar
    15    14    15    1
    16    14    16   ar
    17    16    17    1
    18    16    18   ar
    19     9    10    1
    20    10     1    1
    21     8     3   ar
    22    18    11   ar
    23    20    21    1
@<TRIPOS>MOLECULE
*****
 21 23 0 0 0
SMALL
GASTEIGER

@<TRIPOS>ATOM
      1 C          60.1485   88.1742    8.5260 C.3     1  UNL1        0.0591
      2 C          60.5122   89.4583    9.2107 C.3     1  UNL1        0.0418
      3 C          61.4949   89.4518   10.3440 C.ar    1  UNL1       -0.0245
      4 C          61.8585   90.7359   11.0287 C.ar    1  UNL1       -0.0045
      5 C          62.8411   90.7293   12.1620 C.ar    1  UNL1       -0.0003
      6 C          63.4601   89.4387   12.6106 C.ar    1  UNL1       -0.0003
      7 C          63.0964   88.1547   11.9259 C.ar    1  UNL1       -0.0043
      8 C          62.1138   88.1612   10.7926 C.ar    1  UNL1       -0.0223
      9 C          61.7501   86.8770   10.1079 C.3     1  UNL1        0.0456
     10 C          60.7675   86.8836    8.9746 C.3     1  UNL1        0.0248
     11 C          62.3690   85.5864   10.5565 C.ar    1  UNL1       -0.0175
     12 C          63.1808   84.7698    9.5951 C.ar    1  UNL1       -0.0030
     13 C          63.7997   83.4792   10.0437 C.ar    1  UNL1        0.0119
     14 C          63.6069   83.0052   11.4538 C.ar    1  UNL1        0.0682
     15 CL         64.2258   81.7146   11.9024 Cl      1  UNL1       -0.0814
     16 C          62.7952   83.8218   12.4151 C.ar    1  UNL1        0.0679
     17 CL         62.6023   83.3478   13.8252 Cl      1  UNL1       -0.0814
     18 C          62.1762   85.1124   11.9665 C.ar    1  UNL1        0.0083
     19 C          59.0981   89.3578    6.4655 C.3     1  UNL1        0.0859
     20 N          59.1659   88.1806    7.3926 N.3     1  UNL1       -0.2971
     21 H          59.3744   87.3645    6.8175 H       1  UNL1        0.1233
@<TRIPOS>BOND
     1    19    20    1
     2     1    20    1
     3     1     2    1
     4     2     3    1
     5     3     4   ar
     6     4     5   ar
     7     5     6   ar
     8     6     7   ar
     9     7     8   ar
    10     8     9    1
    11     9    11    1
    12    11    12   ar
    13    12    13   ar
    14    13    14   ar
    15    14    15    1
    16    14    16   ar
    17    16    17    1
    18    16    18   ar
    19     9    10    1
    20    10     1    1
    21     8     3   ar
    22    18    11   ar
    23    20    21    1
@<TRIPOS>MOLECULE
*****
 21 23 0 0 0
SMALL
GASTEIGER

@<TRIPOS>ATOM
      1 C          62.3576   89.7068   11.3429 C.3     1  UNL1        0.0591
      2 C          61.4266   89.9184   10.1860 C.3     1  UNL1        0.0418
      3 C          60.8705   88.7384    9.4453 C.ar    1  UNL1       -0.0245
      4 C          59.9395   88.9500    8.2884 C.ar    1  UNL1       -0.0045
      5 C          59.3834   87.7701    7.5478 C.ar    1  UNL1       -0.0003
      6 C          59.7583   86.3786    7.9641 C.ar    1  UNL1       -0.0003
      7 C          60.6893   86.1671    9.1210 C.ar    1  UNL1       -0.0043
      8 C          61.2454   87.3470    9.8616 C.ar    1  UNL1       -0.0223
      9 C          62.1764   87.1354   11.0186 C.3     1  UNL1        0.0456
     10 C          62.7325   88.3153   11.7592 C.3     1  UNL1        0.0248
     11 C          62.5513   85.7440   11.4348 C.ar    1  UNL1       -0.0175
     12 C          62.2829   85.2825   12.8367 C.ar    1  UNL1       -0.0030
     13 C          62.6578   83.8911   13.2530 C.ar    1  UNL1        0.0119
     14 C          63.3011   82.9610   12.2674 C.ar    1  UNL1        0.0682
     15 CL         63.6760   81.5696   12.6837 Cl      1  UNL1       -0.0814
     16 C          63.5695   83.4225   10.8656 C.ar    1  UNL1        0.0679
     17 CL         64.2128   82.4925    9.8801 Cl      1  UNL1       -0.0814
     18 C          63.1946   84.8140   10.4494 C.ar    1  UNL1        0.0083
     19 C          63.7468   90.6758   13.3130 C.3     1  UNL1        0.0859
     20 N          62.9137   90.8867   12.0836 N.3     1  UNL1       -0.2971
     21 H          63.4917   91.4043   11.4215 H       1  UNL1        0.1233
@<TRIPOS>BOND
     1    19    20    1
     2     1    20    1
     3     1     2    1
     4     2     3    1
     5     3     4   ar
     6     4     5   ar
     7     5     6   ar
     8     6     7   ar
     9     7     8   ar
    10     8     9    1
    11     9    11    1
    12    11    12   ar
    13    12    13   ar
    14    13    14   ar
    15    14    15    1
    16    14    16   ar
    17    16    17    1
    18    16    18   ar
    19     9    10    1
    20    10     1    1
    21     8     3   ar
    22    18    11   ar
    23    20    21    1
@<TRIPOS>MOLECULE
*****
 21 23 0 0 0
SMALL
GASTEIGER

@<TRIPOS>ATOM
      1 C          63.7154   90.0991   13.1953 C.3     1  UNL1        0.0591
      2 C          64.3141   89.1559   14.1963 C.3     1  UNL1        0.0418
      3 C          64.1262   87.6761   14.0381 C.ar    1  UNL1       -0.0245
      4 C          64.7248   86.7329   15.0391 C.ar    1  UNL1       -0.0045
      5 C          64.5370   85.2531   14.8809 C.ar    1  UNL1       -0.0003
      6 C          63.7505   84.7166   13.7217 C.ar    1  UNL1       -0.0003
      7 C          63.1519   85.6598   12.7208 C.ar    1  UNL1       -0.0043
      8 C          63.3398   87.1395   12.8790 C.ar    1  UNL1       -0.0223
      9 C          62.7412   88.0828   11.8780 C.3     1  UNL1        0.0456
     10 C          62.9290   89.5626   12.0361 C.3     1  UNL1        0.0248
     11 C          61.9547   87.5463   10.7188 C.ar    1  UNL1       -0.0175
     12 C          60.5195   87.9433   10.5383 C.ar    1  UNL1       -0.0030
     13 C          59.7330   87.4068    9.3791 C.ar    1  UNL1        0.0119
     14 C          60.3818   86.4733    8.4005 C.ar    1  UNL1        0.0682
     15 CL         59.5954   85.9368    7.2413 Cl      1  UNL1       -0.0814
     16 C          61.8170   86.0764    8.5810 C.ar    1  UNL1        0.0679
     17 CL         62.4658   85.1428    7.6024 Cl      1  UNL1       -0.0814
     18 C          62.6035   86.6129    9.7402 C.ar    1  UNL1        0.0083
     19 C          65.2265   92.2060   13.0282 C.3     1  UNL1        0.0859
     20 N          63.9033   91.5789   13.3535 N.3     1  UNL1       -0.2971
     21 H          63.2094   92.0292   12.7567 H       1  UNL1        0.1233
@<TRIPOS>BOND
     1    19    20    1
     2     1    20    1
     3     1     2    1
     4     2     3    1
     5     3     4   ar
     6     4     5   ar
     7     5     6   ar
     8     6     7   ar
     9     7     8   ar
    10     8     9    1
    11     9    11    1
    12    11    12   ar
    13    12    13   ar
    14    13    14   ar
    15    14    15    1
    16    14    16   ar
    17    16    17    1
    18    16    18   ar
    19     9    10    1
    20    10     1    1
    21     8     3   ar
    22    18    11   ar
    23    20    21    1
@<TRIPOS>MOLECULE
*****
 21 23 0 0 0
SMALL
GASTEIGER

@<TRIPOS>ATOM
      1 C          63.7640   88.3615   13.3259 C.3     1  UNL1        0.0591
      2 C          63.0361   89.1467   12.2754 C.3     1  UNL1        0.0418
      3 C          62.2727   88.4325   11.1996 C.ar    1  UNL1       -0.0245
      4 C          61.5448   89.2176   10.1490 C.ar    1  UNL1       -0.0045
      5 C          60.7815   88.5034    9.0733 C.ar    1  UNL1       -0.0003
      6 C          60.7461   87.0040    9.0482 C.ar    1  UNL1       -0.0003
      7 C          61.4740   86.2189   10.0987 C.ar    1  UNL1       -0.0043
      8 C          62.2373   86.9331   11.1744 C.ar    1  UNL1       -0.0223
      9 C          62.9653   86.1479   12.2250 C.3     1  UNL1        0.0456
     10 C          63.7286   86.8622   13.3007 C.3     1  UNL1        0.0248
     11 C          62.9299   84.6486   12.1998 C.ar    1  UNL1       -0.0175
     12 C          63.4419   83.9063   11.0010 C.ar    1  UNL1       -0.0030
     13 C          63.4065   82.4069   10.9758 C.ar    1  UNL1        0.0119
     14 C          62.8592   81.6498   12.1494 C.ar    1  UNL1        0.0682
     15 CL         62.8238   80.1505   12.1242 Cl      1  UNL1       -0.0814
     16 C          62.3473   82.3921   13.3481 C.ar    1  UNL1        0.0679
     17 CL         61.7999   81.6350   14.5217 Cl      1  UNL1       -0.0814
     18 C          62.3826   83.8915   13.3733 C.ar    1  UNL1        0.0083
     19 C          64.8443   90.5345   14.2541 C.3     1  UNL1        0.0859
     20 N          64.5274   89.0758   14.4017 N.3     1  UNL1       -0.2971
     21 H          63.9869   88.9773   15.2611 H       1  UNL1        0.1233
@<TRIPOS>BOND
     1    19    20    1
     2     1    20    1
     3     1     2    1
     4     2     3    1
     5     3     4   ar
     6     4     5   ar
     7     5     6   ar
     8     6     7   ar
     9     7     8   ar
    10     8     9    1
    11     9    11    1
    12    11    12   ar
    13    12    13   ar
    14    13    14   ar
    15    14    15    1
    16    14    16   ar
    17    16    17    1
    18    16    18   ar
    19     9    10    1
    20    10     1    1
    21     8     3   ar
    22    18    11   ar
    23    20    21    1
@<TRIPOS>MOLECULE
*****
 21 23 0 0 0
SMALL
GASTEIGER

@<TRIPOS>ATOM
      1 C          61.6518   87.6921   10.1579 C.3     1  UNL1        0.0591
      2 C          62.3042   88.7770   10.9624 C.3     1  UNL1        0.0418
      3 C          63.0473   88.4348   12.2197 C.ar    1  UNL1       -0.0245
      4 C          63.6997   89.5197   13.0242 C.ar    1  UNL1       -0.0045
      5 C          64.4428   89.1774   14.2814 C.ar    1  UNL1       -0.0003
      6 C          64.5335   87.7502   14.7341 C.ar    1  UNL1       -0.0003
      7 C          63.8810   86.6653   13.9296 C.ar    1  UNL1       -0.0043
      8 C          63.1380   87.0076   12.6724 C.ar    1  UNL1       -0.0223
      9 C          62.4855   85.9227   11.8678 C.3     1  UNL1        0.0456
     10 C          61.7424   86.2649   10.6106 C.3     1  UNL1        0.0248
     11 C          62.5761   84.4955   12.3205 C.ar    1  UNL1       -0.0175
     12 C          62.4092   84.1572   13.7724 C.ar    1  UNL1       -0.0030
     13 C          62.4999   82.7300   14.2251 C.ar    1  UNL1        0.0119
     14 C          62.7574   81.6411   13.2260 C.ar    1  UNL1        0.0682
     15 CL         62.8481   80.2140   13.6787 Cl      1  UNL1       -0.0814
     16 C          62.9243   81.9795   11.7742 C.ar    1  UNL1        0.0679
     17 CL         63.1818   80.8907   10.7751 Cl      1  UNL1       -0.0814
     18 C          62.8336   83.4067   11.3215 C.ar    1  UNL1        0.0083
     19 C          59.7806   87.1621    8.4351 C.3     1  UNL1        0.0859
     20 N          60.9086   88.0344    8.9006 N.3     1  UNL1       -0.2971
     21 H          60.5230   88.9695    9.0318 H       1  UNL1        0.1233
@<TRIPOS>BOND
     1    19    20    1
     2     1    20    1
     3     1     2    1
     4     2     3    1
     5     3     4   ar
     6     4     5   ar
     7     5     6   ar
     8     6     7   ar
     9     7     8   ar
    10     8     9    1
    11     9    11    1
    12    11    12   ar
    13    12    13   ar
    14    13    14   ar
    15    14    15    1
    16    14    16   ar
    17    16    17    1
    18    16    18   ar
    19     9    10    1
    20    10     1    1
    21     8     3   ar
    22    18    11   ar
    23    20    21    1
