@<TRIPOS>MOLECULE
*****
 49 54 0 0 0
SMALL
GASTEIGER

@<TRIPOS>ATOM
      1 C          58.6683   86.7609    8.5977 C.3     1  UNL1        0.0312
      2 C          59.5352   87.9541    8.3242 C.2     1  UNL1        0.0136
      3 C          59.3282   88.7615    7.0771 C.2     1  UNL1        0.0107
      4 C          60.1950   89.9546    6.8036 C.2     1  UNL1        0.0509
      5 C          61.2689   90.3405    7.7772 C.2     1  UNL1        0.0613
      6 C          61.4759   89.5332    9.0243 C.2     1  UNL1        0.2246
      7 N          62.4471   89.6705   10.1591 N.2     1  UNL1       -0.0378
      8 C          62.1805   88.5621   11.1341 C.2     1  UNL1        0.3605
      9 N          61.0445   87.7398   10.6017 N.2     1  UNL1       -0.0547
     10 C          60.6090   88.3400    9.2978 C.3     1  UNL1        0.2976
     11 C          62.9200   88.3188   12.4162 C.3     1  UNL1        0.2246
     12 C          63.4166   89.4787   13.2273 C.2     1  UNL1        0.0436
     13 C          64.1561   89.2352   14.5095 C.2     1  UNL1        0.0288
     14 C          64.3990   87.8320   14.9805 C.2     1  UNL1        0.0896
     15 N          63.9023   86.6721   14.1694 N.am    1  UNL1       -0.1770
     16 C          63.1628   86.9155   12.8872 C.2     1  UNL1        0.2627
     17 O          62.6662   85.7556   12.0761 O.2     1  UNL1       -0.2719
     18 N          63.1738   90.8819   12.7564 N.pl3   1  UNL1       -0.3329
     19 H          62.4096   91.3937   13.1075 H       1  UNL1        0.1466
     20 C          64.0954   91.5056   11.7505 C.3     1  UNL1        0.1211
     21 C          65.2145   92.3935   12.2079 C.3     1  UNL1        0.1522
     22 O          65.4753   92.5767   13.6737 O.3     1  UNL1       -0.3783
     23 H          64.8355   92.0556   14.1835 H       1  UNL1        0.2109
     24 C          66.0727   93.0982   11.1995 C.ar    1  UNL1        0.0067
     25 C          65.8311   94.5458   10.8898 C.ar    1  UNL1       -0.0018
     26 C          66.6894   95.2504    9.8815 C.ar    1  UNL1        0.0006
     27 C          67.7893   94.5075    9.1828 C.ar    1  UNL1        0.0114
     28 C          68.0309   93.0599    9.4925 C.ar    1  UNL1        0.0574
     29 CL         69.1309   92.3169    8.7938 Cl      1  UNL1       -0.0823
     30 C          67.1727   92.3552   10.5009 C.ar    1  UNL1        0.0095
     31 N          59.9880   90.7620    5.5564 N.pl3   1  UNL1       -0.3073
     32 C          58.6058   91.1895    5.1605 C.3     1  UNL1        0.0922
     33 C          58.3988   91.9968    3.9134 C.3     1  UNL1        0.0374
     34 C          59.5740   92.3766    3.0621 C.3     1  UNL1        0.0610
     35 C          60.9562   91.9491    3.4580 C.3     1  UNL1        0.0374
     36 C          61.1632   91.1417    4.7051 C.3     1  UNL1        0.0922
     37 N          59.3671   93.1839    1.8150 N.3     1  UNL1       -0.2710
     38 C          58.3602   92.7427    0.7943 C.3     1  UNL1        0.0940
     39 C          58.1532   93.5500   -0.4528 C.3     1  UNL1        0.1141
     40 N          58.9531   94.7985   -0.6794 N.am    1  UNL1       -0.2432
     41 C          58.7462   95.6059   -1.9266 C.2     1  UNL1        0.4050
     42 O          59.5461   96.8544   -2.1532 O.2     1  UNL1       -0.2262
     43 C          59.9599   95.2397    0.3412 C.3     1  UNL1        0.1141
     44 C          60.1669   94.4325    1.5884 C.3     1  UNL1        0.0940
     45 O          57.7393   95.1646   -2.9471 O.3     1  UNL1       -0.4318
     46 C          58.1741   94.3383   -4.1211 C.3     1  UNL1        0.2417
     47 C          59.5905   94.4150   -4.6090 C.3     1  UNL1        0.1849
     48 O          60.2189   95.7496   -4.8806 O.3     1  UNL1       -0.3784
     49 H          59.7670   96.1740   -5.6267 H       1  UNL1        0.2106
@<TRIPOS>BOND
     1     1     2    1
     2     2     3    2
     3     3     4    1
     4     4    31    1
     5    31    32    1
     6    32    33    1
     7    33    34    1
     8    34    37    1
     9    37    38    1
    10    38    39    1
    11    39    40    1
    12    40    41   am
    13    41    42    2
    14    41    45    1
    15    45    46    1
    16    46    47    1
    17    47    48    1
    18    40    43    1
    19    43    44    1
    20    34    35    1
    21    35    36    1
    22     4     5    2
    23     5     6    1
    24     6     7    2
    25     7     8    1
    26     8    11    1
    27    11    12    1
    28    12    18    1
    29    18    20    1
    30    20    21    1
    31    21    22    1
    32    21    24    1
    33    24    25   ar
    34    25    26   ar
    35    26    27   ar
    36    27    28   ar
    37    28    29    1
    38    28    30   ar
    39    12    13    2
    40    13    14    1
    41    14    15    2
    42    15    16    1
    43    16    17    2
    44     8     9    2
    45     9    10    1
    46    10     2    1
    47    36    31    1
    48    10     6    1
    49    44    37    1
    50    16    11    1
    51    30    24   ar
    52    48    49    1
    53    18    19    1
    54    22    23    1
@<TRIPOS>MOLECULE
*****
 49 54 0 0 0
SMALL
GASTEIGER

@<TRIPOS>ATOM
      1 C          58.6869   86.7779    8.6027 C.3     1  UNL1        0.0312
      2 C          59.5459   87.9754    8.3232 C.2     1  UNL1        0.0136
      3 C          59.3309   88.7776    7.0741 C.2     1  UNL1        0.0107
      4 C          60.1899   89.9750    6.7947 C.2     1  UNL1        0.0509
      5 C          61.2639   90.3705    7.7644 C.2     1  UNL1        0.0613
      6 C          61.4788   89.5683    9.0135 C.2     1  UNL1        0.2246
      7 N          62.4520   89.7150   10.1455 N.2     1  UNL1       -0.0378
      8 C          62.1945   88.6081   11.1245 C.2     1  UNL1        0.3605
      9 N          61.0621   87.7773   10.5976 N.2     1  UNL1       -0.0547
     10 C          60.6198   88.3708    9.2929 C.3     1  UNL1        0.2976
     11 C          62.9386   88.3733   12.4055 C.3     1  UNL1        0.2246
     12 C          63.4512   89.5381   13.1996 C.2     1  UNL1        0.0436
     13 C          64.1954   89.3031   14.4806 C.2     1  UNL1        0.0288
     14 C          64.4270   87.9034   14.9676 C.2     1  UNL1        0.0896
     15 N          63.9144   86.7386   14.1736 N.am    1  UNL1       -0.1770
     16 C          63.1703   86.9736   12.8926 C.2     1  UNL1        0.2627
     17 O          62.6577   85.8088   12.0985 O.2     1  UNL1       -0.2719
     18 N          63.2196   90.9378   12.7126 N.pl3   1  UNL1       -0.3329
     19 H          62.4417   91.4484   13.0341 H       1  UNL1        0.1466
     20 C          64.1733   91.5596   11.7360 C.3     1  UNL1        0.1211
     21 C          65.2836   92.4397   12.2286 C.3     1  UNL1        0.1522
     22 O          65.5020   92.6177   13.7019 O.3     1  UNL1       -0.3783
     23 H          64.8444   92.0991   14.1913 H       1  UNL1        0.2109
     24 C          66.1753   93.1418   11.2479 C.ar    1  UNL1        0.0067
     25 C          67.1357   92.3522   10.4087 C.ar    1  UNL1       -0.0018
     26 C          68.0274   93.0543    9.4280 C.ar    1  UNL1        0.0006
     27 C          67.9589   94.5461    9.2865 C.ar    1  UNL1        0.0114
     28 C          66.9986   95.3356   10.1257 C.ar    1  UNL1        0.0574
     29 CL         66.9301   96.8274    9.9842 Cl      1  UNL1       -0.0823
     30 C          66.1068   94.6335   11.1064 C.ar    1  UNL1        0.0095
     31 N          59.9749   90.7773    5.5455 N.pl3   1  UNL1       -0.3073
     32 C          58.5887   91.1921    5.1499 C.3     1  UNL1        0.0922
     33 C          58.3737   91.9943    3.9007 C.3     1  UNL1        0.0374
     34 C          59.5449   92.3816    3.0473 C.3     1  UNL1        0.0610
     35 C          60.9310   91.9667    3.4430 C.3     1  UNL1        0.0374
     36 C          61.1460   91.1646    4.6921 C.3     1  UNL1        0.0922
     37 N          59.3300   93.1837    1.7982 N.3     1  UNL1       -0.2710
     38 C          58.3396   92.7212    0.7709 C.3     1  UNL1        0.0940
     39 C          58.1247   93.5233   -0.4783 C.3     1  UNL1        0.1141
     40 N          58.9001   94.7880   -0.7002 N.am    1  UNL1       -0.2432
     41 C          58.6852   95.5901   -1.9493 C.2     1  UNL1        0.4050
     42 O          59.4606   96.8548   -2.1712 O.2     1  UNL1       -0.2262
     43 C          59.8904   95.2505    0.3271 C.3     1  UNL1        0.1141
     44 C          60.1054   94.4484    1.5763 C.3     1  UNL1        0.0940
     45 O          57.6948   95.1275   -2.9765 O.3     1  UNL1       -0.4318
     46 C          58.1547   94.3098   -4.1469 C.3     1  UNL1        0.2417
     47 C          57.1484   93.6838   -5.0664 C.3     1  UNL1        0.1849
     48 O          55.7259   94.1597   -5.0570 O.3     1  UNL1       -0.3784
     49 H          55.3194   93.9469   -4.2024 H       1  UNL1        0.2106
@<TRIPOS>BOND
     1     1     2    1
     2     2     3    2
     3     3     4    1
     4     4    31    1
     5    31    32    1
     6    32    33    1
     7    33    34    1
     8    34    37    1
     9    37    38    1
    10    38    39    1
    11    39    40    1
    12    40    41   am
    13    41    42    2
    14    41    45    1
    15    45    46    1
    16    46    47    1
    17    47    48    1
    18    40    43    1
    19    43    44    1
    20    34    35    1
    21    35    36    1
    22     4     5    2
    23     5     6    1
    24     6     7    2
    25     7     8    1
    26     8    11    1
    27    11    12    1
    28    12    18    1
    29    18    20    1
    30    20    21    1
    31    21    22    1
    32    21    24    1
    33    24    25   ar
    34    25    26   ar
    35    26    27   ar
    36    27    28   ar
    37    28    29    1
    38    28    30   ar
    39    12    13    2
    40    13    14    1
    41    14    15    2
    42    15    16    1
    43    16    17    2
    44     8     9    2
    45     9    10    1
    46    10     2    1
    47    36    31    1
    48    10     6    1
    49    44    37    1
    50    16    11    1
    51    30    24   ar
    52    48    49    1
    53    18    19    1
    54    22    23    1
@<TRIPOS>MOLECULE
*****
 49 54 0 0 0
SMALL
GASTEIGER

@<TRIPOS>ATOM
      1 C          59.1540   86.8574    8.7215 C.3     1  UNL1        0.0312
      2 C          59.8945   88.1298    8.4340 C.2     1  UNL1        0.0136
      3 C          59.6260   88.8836    7.1652 C.2     1  UNL1        0.0107
      4 C          60.3664   90.1559    6.8777 C.2     1  UNL1        0.0509
      5 C          61.3755   90.6747    7.8590 C.2     1  UNL1        0.0613
      6 C          61.6440   89.9209    9.1277 C.2     1  UNL1        0.2246
      7 N          62.5743   90.1850   10.2744 N.2     1  UNL1       -0.0378
      8 C          62.4088   89.0759   11.2705 C.2     1  UNL1        0.3605
      9 N          61.3762   88.1262   10.7395 N.2     1  UNL1       -0.0547
     10 C          60.9035   88.6485    9.4152 C.3     1  UNL1        0.2976
     11 C          63.1464   88.9401   12.5696 C.3     1  UNL1        0.2246
     12 C          63.4256   87.5790   13.1348 C.2     1  UNL1        0.0436
     13 C          64.1632   87.4434   14.4339 C.2     1  UNL1        0.0288
     14 C          64.6215   88.6687   15.1677 C.2     1  UNL1        0.0896
     15 N          64.3423   90.0298   14.6025 N.am    1  UNL1       -0.1770
     16 C          63.6047   90.1654   13.3034 C.2     1  UNL1        0.2627
     17 O          63.3254   91.5265   12.7382 O.2     1  UNL1       -0.2719
     18 N          62.9674   86.3537   12.4010 N.pl3   1  UNL1       -0.3329
     19 H          62.3068   86.4327   11.6753 H       1  UNL1        0.1466
     20 C          63.5155   85.0079   12.7729 C.3     1  UNL1        0.1211
     21 C          62.7035   84.0761   13.6229 C.3     1  UNL1        0.1522
     22 O          61.9852   84.5978   14.8320 O.3     1  UNL1       -0.3783
     23 H          62.1492   85.5498   14.9199 H       1  UNL1        0.2109
     24 C          62.6098   82.6228   13.2638 C.ar    1  UNL1        0.0067
     25 C          62.2311   81.6150   14.3082 C.ar    1  UNL1       -0.0018
     26 C          62.1374   80.1617   13.9491 C.ar    1  UNL1        0.0006
     27 C          62.4224   79.7161   12.5454 C.ar    1  UNL1        0.0114
     28 C          62.8011   80.7238   11.5010 C.ar    1  UNL1        0.0574
     29 CL         63.0861   80.2782   10.0974 Cl      1  UNL1       -0.0823
     30 C          62.8948   82.1772   11.8601 C.ar    1  UNL1        0.0095
     31 N          60.0979   90.9097    5.6089 N.pl3   1  UNL1       -0.3073
     32 C          61.2273   91.2367    4.6775 C.3     1  UNL1        0.0922
     33 C          60.9588   91.9905    3.4087 C.3     1  UNL1        0.0374
     34 C          59.5609   92.4172    3.0714 C.3     1  UNL1        0.0610
     35 C          58.4315   92.0902    4.0028 C.3     1  UNL1        0.0374
     36 C          58.7000   91.3364    5.2716 C.3     1  UNL1        0.0922
     37 N          59.2923   93.1709    1.8027 N.3     1  UNL1       -0.2710
     38 C          58.4505   92.5520    0.7264 C.3     1  UNL1        0.0940
     39 C          58.1818   93.3057   -0.5423 C.3     1  UNL1        0.1141
     40 N          58.7550   94.6783   -0.7349 N.am    1  UNL1       -0.2432
     41 C          58.4865   95.4321   -2.0037 C.2     1  UNL1        0.4050
     42 O          59.0597   96.8048   -2.1963 O.2     1  UNL1       -0.2262
     43 C          59.5969   95.2973    0.3413 C.3     1  UNL1        0.1141
     44 C          59.8655   94.5436    1.6101 C.3     1  UNL1        0.0940
     45 O          57.6446   94.8131   -3.0798 O.3     1  UNL1       -0.4318
     46 C          56.1969   95.1845   -3.2063 C.3     1  UNL1        0.2417
     47 C          55.2734   95.0129   -2.0367 C.3     1  UNL1        0.1849
     48 O          54.8234   93.6406   -1.6316 O.3     1  UNL1       -0.3784
     49 H          54.2699   93.2618   -2.3323 H       1  UNL1        0.2106
@<TRIPOS>BOND
     1     1     2    1
     2     2     3    2
     3     3     4    1
     4     4    31    1
     5    31    32    1
     6    32    33    1
     7    33    34    1
     8    34    37    1
     9    37    38    1
    10    38    39    1
    11    39    40    1
    12    40    41   am
    13    41    42    2
    14    41    45    1
    15    45    46    1
    16    46    47    1
    17    47    48    1
    18    40    43    1
    19    43    44    1
    20    34    35    1
    21    35    36    1
    22     4     5    2
    23     5     6    1
    24     6     7    2
    25     7     8    1
    26     8    11    1
    27    11    12    1
    28    12    18    1
    29    18    20    1
    30    20    21    1
    31    21    22    1
    32    21    24    1
    33    24    25   ar
    34    25    26   ar
    35    26    27   ar
    36    27    28   ar
    37    28    29    1
    38    28    30   ar
    39    12    13    2
    40    13    14    1
    41    14    15    2
    42    15    16    1
    43    16    17    2
    44     8     9    2
    45     9    10    1
    46    10     2    1
    47    36    31    1
    48    10     6    1
    49    44    37    1
    50    16    11    1
    51    30    24   ar
    52    48    49    1
    53    18    19    1
    54    22    23    1
@<TRIPOS>MOLECULE
*****
 49 54 0 0 0
SMALL
GASTEIGER

@<TRIPOS>ATOM
      1 C          59.9453   96.8559    0.8085 C.3     1  UNL1        0.0312
      2 C          59.7302   95.3723    0.7552 C.2     1  UNL1        0.0136
      3 C          59.8416   94.5529    2.0066 C.2     1  UNL1        0.0107
      4 C          59.6265   93.0694    1.9534 C.2     1  UNL1        0.0509
      5 C          59.3001   92.4052    0.6486 C.2     1  UNL1        0.0613
      6 C          59.1888   93.2246   -0.6028 C.2     1  UNL1        0.2246
      7 N          58.8820   92.8514   -2.0229 N.2     1  UNL1       -0.0378
      8 C          58.9074   94.1043   -2.8473 C.2     1  UNL1        0.3605
      9 N          59.2300   95.2518   -1.9367 N.2     1  UNL1       -0.0547
     10 C          59.4039   94.7082   -0.5496 C.3     1  UNL1        0.2976
     11 C          58.6547   94.1939   -4.3231 C.3     1  UNL1        0.2246
     12 C          59.7667   94.5814   -5.2523 C.2     1  UNL1        0.0436
     13 C          59.5139   94.6710   -6.7281 C.2     1  UNL1        0.0288
     14 C          58.1492   94.3732   -7.2748 C.2     1  UNL1        0.0896
     15 N          57.0372   93.9857   -6.3457 N.am    1  UNL1       -0.1770
     16 C          57.2901   93.8960   -4.8698 C.2     1  UNL1        0.2627
     17 O          56.1781   93.5086   -3.9406 O.2     1  UNL1       -0.2719
     18 N          61.1314   94.8792   -4.7057 N.pl3   1  UNL1       -0.3329
     19 H          61.2437   95.5664   -4.0096 H       1  UNL1        0.1466
     20 C          62.3251   94.1302   -5.2195 C.3     1  UNL1        0.1211
     21 C          63.1928   93.3593   -4.2693 C.3     1  UNL1        0.1522
     22 O          63.8045   92.0588   -4.6990 O.3     1  UNL1       -0.3783
     23 H          63.5408   91.8635   -5.6118 H       1  UNL1        0.2109
     24 C          63.4487   93.8888   -2.8894 C.ar    1  UNL1        0.0067
     25 C          62.6876   93.3364   -1.7209 C.ar    1  UNL1       -0.0018
     26 C          62.9435   93.8660   -0.3410 C.ar    1  UNL1        0.0006
     27 C          63.9607   94.9480   -0.1296 C.ar    1  UNL1        0.0114
     28 C          64.7218   95.5004   -1.2982 C.ar    1  UNL1        0.0574
     29 CL         65.7389   96.5824   -1.0868 Cl      1  UNL1       -0.0823
     30 C          64.4658   94.9709   -2.6780 C.ar    1  UNL1        0.0095
     31 N          59.7378   92.2500    3.2049 N.pl3   1  UNL1       -0.3073
     32 C          61.0704   91.7088    3.6310 C.3     1  UNL1        0.0922
     33 C          61.1817   90.8894    4.8825 C.3     1  UNL1        0.0374
     34 C          59.9605   90.6112    5.7079 C.3     1  UNL1        0.0610
     35 C          58.6280   91.1524    5.2818 C.3     1  UNL1        0.0374
     36 C          58.5167   91.9718    4.0304 C.3     1  UNL1        0.0922
     37 N          60.0718   89.7919    6.9593 N.3     1  UNL1       -0.2710
     38 C          60.3162   88.3146    6.8694 C.3     1  UNL1        0.0940
     39 C          60.4274   87.4951    8.1208 C.3     1  UNL1        0.1141
     40 N          60.2943   88.1529    9.4623 N.am    1  UNL1       -0.2432
     41 C          60.4055   87.3335   10.7137 C.2     1  UNL1        0.4050
     42 O          60.2724   87.9913   12.0552 O.2     1  UNL1       -0.2262
     43 C          60.0499   89.6302    9.5522 C.3     1  UNL1        0.1141
     44 C          59.9386   90.4496    8.3008 C.3     1  UNL1        0.0940
     45 O          60.6499   85.8563   10.6237 O.3     1  UNL1       -0.4318
     46 C          62.0526   85.3254   10.6470 C.3     1  UNL1        0.2417
     47 C          62.8306   85.3177   11.9295 C.3     1  UNL1        0.1849
     48 O          62.1362   85.0232   13.2261 O.3     1  UNL1       -0.3784
     49 H          61.5051   85.7329   13.4233 H       1  UNL1        0.2106
@<TRIPOS>BOND
     1     1     2    1
     2     2     3    2
     3     3     4    1
     4     4    31    1
     5    31    32    1
     6    32    33    1
     7    33    34    1
     8    34    37    1
     9    37    38    1
    10    38    39    1
    11    39    40    1
    12    40    41   am
    13    41    42    2
    14    41    45    1
    15    45    46    1
    16    46    47    1
    17    47    48    1
    18    40    43    1
    19    43    44    1
    20    34    35    1
    21    35    36    1
    22     4     5    2
    23     5     6    1
    24     6     7    2
    25     7     8    1
    26     8    11    1
    27    11    12    1
    28    12    18    1
    29    18    20    1
    30    20    21    1
    31    21    22    1
    32    21    24    1
    33    24    25   ar
    34    25    26   ar
    35    26    27   ar
    36    27    28   ar
    37    28    29    1
    38    28    30   ar
    39    12    13    2
    40    13    14    1
    41    14    15    2
    42    15    16    1
    43    16    17    2
    44     8     9    2
    45     9    10    1
    46    10     2    1
    47    36    31    1
    48    10     6    1
    49    44    37    1
    50    16    11    1
    51    30    24   ar
    52    48    49    1
    53    18    19    1
    54    22    23    1
@<TRIPOS>MOLECULE
*****
 49 54 0 0 0
SMALL
GASTEIGER

@<TRIPOS>ATOM
      1 C          58.8151   86.7729    8.4733 C.3     1  UNL1        0.0312
      2 C          59.6334   88.0012    8.2059 C.2     1  UNL1        0.0136
      3 C          59.4008   88.8004    6.9580 C.2     1  UNL1        0.0107
      4 C          60.2191   90.0287    6.6906 C.2     1  UNL1        0.0509
      5 C          61.2701   90.4579    7.6710 C.2     1  UNL1        0.0613
      6 C          61.5027   89.6588    8.9189 C.2     1  UNL1        0.2246
      7 N          62.4604   89.8353   10.0598 N.2     1  UNL1       -0.0378
      8 C          62.2340   88.7160   11.0324 C.2     1  UNL1        0.3605
      9 N          61.1363   87.8477   10.4925 N.2     1  UNL1       -0.0547
     10 C          60.6844   88.4304    9.1863 C.3     1  UNL1        0.2976
     11 C          62.9750   88.5024   12.3189 C.3     1  UNL1        0.2246
     12 C          63.5364   89.6764   13.0649 C.2     1  UNL1        0.0436
     13 C          64.2775   89.4627   14.3515 C.2     1  UNL1        0.0288
     14 C          64.4572   88.0751   14.8920 C.2     1  UNL1        0.0896
     15 N          63.8958   86.9011   14.1460 N.am    1  UNL1       -0.1770
     16 C          63.1547   87.1148   12.8595 C.2     1  UNL1        0.2627
     17 O          62.5934   85.9408   12.1134 O.2     1  UNL1       -0.2719
     18 N          63.3567   91.0640   12.5245 N.pl3   1  UNL1       -0.3329
     19 H          62.6762   91.6596   12.9137 H       1  UNL1        0.1466
     20 C          64.2138   91.5443   11.3910 C.3     1  UNL1        0.1211
     21 C          65.1999   92.6525   11.6137 C.3     1  UNL1        0.1522
     22 O          65.0558   93.9458   10.8677 O.3     1  UNL1       -0.3783
     23 H          64.2798   93.8997   10.2874 H       1  UNL1        0.2109
     24 C          66.3300   92.4674   12.5825 C.ar    1  UNL1        0.0067
     25 C          67.6625   91.9796   12.0962 C.ar    1  UNL1       -0.0018
     26 C          68.7926   91.7945   13.0650 C.ar    1  UNL1        0.0006
     27 C          68.5902   92.0972   14.5202 C.ar    1  UNL1        0.0114
     28 C          67.2577   92.5849   15.0064 C.ar    1  UNL1        0.0574
     29 CL         67.0554   92.8876   16.4616 Cl      1  UNL1       -0.0823
     30 C          66.1276   92.7701   14.0377 C.ar    1  UNL1        0.0095
     31 N          59.9864   90.8279    5.4426 N.pl3   1  UNL1       -0.3073
     32 C          58.5917   91.2144    5.0486 C.3     1  UNL1        0.0922
     33 C          58.3590   92.0135    3.8008 C.3     1  UNL1        0.0374
     34 C          59.5211   92.4261    2.9468 C.3     1  UNL1        0.0610
     35 C          60.9159   92.0396    3.3408 C.3     1  UNL1        0.0374
     36 C          61.1486   91.2404    4.5887 C.3     1  UNL1        0.0922
     37 N          59.2886   93.2253    1.6989 N.3     1  UNL1       -0.2710
     38 C          58.2382   92.7956    0.7180 C.3     1  UNL1        0.0940
     39 C          58.0056   93.5947   -0.5299 C.3     1  UNL1        0.1141
     40 N          58.8233   94.8235   -0.7970 N.am    1  UNL1       -0.2432
     41 C          58.5908   95.6226   -2.0449 C.2     1  UNL1        0.4050
     42 O          59.4085   96.8514   -2.3119 O.2     1  UNL1       -0.2262
     43 C          59.8737   95.2532    0.1840 C.3     1  UNL1        0.1141
     44 C          60.1063   94.4541    1.4319 C.3     1  UNL1        0.0940
     45 O          57.5404   95.1929   -3.0257 O.3     1  UNL1       -0.4318
     46 C          57.9415   94.6711   -4.3736 C.3     1  UNL1        0.2417
     47 C          57.4854   93.3131   -4.8185 C.3     1  UNL1        0.1849
     48 O          57.8482   92.0996   -4.0149 O.3     1  UNL1       -0.3784
     49 H          58.8086   91.9666   -4.0459 H       1  UNL1        0.2106
@<TRIPOS>BOND
     1     1     2    1
     2     2     3    2
     3     3     4    1
     4     4    31    1
     5    31    32    1
     6    32    33    1
     7    33    34    1
     8    34    37    1
     9    37    38    1
    10    38    39    1
    11    39    40    1
    12    40    41   am
    13    41    42    2
    14    41    45    1
    15    45    46    1
    16    46    47    1
    17    47    48    1
    18    40    43    1
    19    43    44    1
    20    34    35    1
    21    35    36    1
    22     4     5    2
    23     5     6    1
    24     6     7    2
    25     7     8    1
    26     8    11    1
    27    11    12    1
    28    12    18    1
    29    18    20    1
    30    20    21    1
    31    21    22    1
    32    21    24    1
    33    24    25   ar
    34    25    26   ar
    35    26    27   ar
    36    27    28   ar
    37    28    29    1
    38    28    30   ar
    39    12    13    2
    40    13    14    1
    41    14    15    2
    42    15    16    1
    43    16    17    2
    44     8     9    2
    45     9    10    1
    46    10     2    1
    47    36    31    1
    48    10     6    1
    49    44    37    1
    50    16    11    1
    51    30    24   ar
    52    48    49    1
    53    18    19    1
    54    22    23    1
@<TRIPOS>MOLECULE
*****
 49 54 0 0 0
SMALL
GASTEIGER

@<TRIPOS>ATOM
      1 C          58.9934   86.8634    8.7472 C.3     1  UNL1        0.0312
      2 C          59.7739   88.1096    8.4509 C.2     1  UNL1        0.0136
      3 C          59.5228   88.8677    7.1812 C.2     1  UNL1        0.0107
      4 C          60.3033   90.1138    6.8849 C.2     1  UNL1        0.0509
      5 C          61.3350   90.6020    7.8583 C.2     1  UNL1        0.0613
      6 C          61.5861   89.8439    9.1280 C.2     1  UNL1        0.2246
      7 N          62.5316   90.0807   10.2681 N.2     1  UNL1       -0.0378
      8 C          62.3355   88.9809   11.2690 C.2     1  UNL1        0.3605
      9 N          61.2687   88.0643   10.7476 N.2     1  UNL1       -0.0547
     10 C          60.8056   88.5977    9.4243 C.3     1  UNL1        0.2976
     11 C          63.0761   88.8250   12.5641 C.3     1  UNL1        0.2246
     12 C          63.3560   87.4553   13.1078 C.2     1  UNL1        0.0436
     13 C          64.0967   87.2995   14.4029 C.2     1  UNL1        0.0288
     14 C          64.5573   88.5133   15.1543 C.2     1  UNL1        0.0896
     15 N          64.2773   89.8830   14.6106 N.am    1  UNL1       -0.1770
     16 C          63.5367   90.0388   13.3155 C.2     1  UNL1        0.2627
     17 O          63.2567   91.4084   12.7718 O.2     1  UNL1       -0.2719
     18 N          62.8955   86.2415   12.3565 N.pl3   1  UNL1       -0.3329
     19 H          62.2215   86.3298   11.6443 H       1  UNL1        0.1466
     20 C          63.4617   84.8932   12.6903 C.3     1  UNL1        0.1211
     21 C          62.6903   83.9521   13.5673 C.3     1  UNL1        0.1522
     22 O          62.0195   84.4627   14.8080 O.3     1  UNL1       -0.3783
     23 H          62.1818   85.4150   14.8947 H       1  UNL1        0.2109
     24 C          62.5898   82.5003   13.2036 C.ar    1  UNL1        0.0067
     25 C          62.1725   81.4956   14.2362 C.ar    1  UNL1       -0.0018
     26 C          62.0719   80.0438   13.8726 C.ar    1  UNL1        0.0006
     27 C          62.3887   79.5967   12.4762 C.ar    1  UNL1        0.0114
     28 C          62.8060   80.6014   11.4436 C.ar    1  UNL1        0.0574
     29 CL         63.1228   80.1543   10.0473 Cl      1  UNL1       -0.0823
     30 C          62.9066   82.0532   11.8073 C.ar    1  UNL1        0.0095
     31 N          60.0521   90.8720    5.6151 N.pl3   1  UNL1       -0.3073
     32 C          58.6506   91.2356    5.2234 C.3     1  UNL1        0.0922
     33 C          58.3994   91.9937    3.9537 C.3     1  UNL1        0.0374
     34 C          59.5499   92.3881    3.0757 C.3     1  UNL1        0.0610
     35 C          60.9514   92.0245    3.4674 C.3     1  UNL1        0.0374
     36 C          61.2026   91.2664    4.7371 C.3     1  UNL1        0.0922
     37 N          59.2988   93.1462    1.8060 N.3     1  UNL1       -0.2710
     38 C          59.9494   94.4801    1.5877 C.3     1  UNL1        0.0940
     39 C          59.6984   95.2383    0.3180 C.3     1  UNL1        0.1141
     40 N          58.7968   94.6626   -0.7335 N.am    1  UNL1       -0.2432
     41 C          58.5458   95.4207   -2.0032 C.2     1  UNL1        0.4050
     42 O          57.6441   94.8451   -3.0547 O.2     1  UNL1       -0.2262
     43 C          58.1462   93.3288   -0.5152 C.3     1  UNL1        0.1141
     44 C          58.3972   92.5706    0.7545 C.3     1  UNL1        0.0940
     45 O          59.1964   96.7545   -2.2214 O.3     1  UNL1       -0.4318
     46 C          60.4389   96.8554   -3.0557 C.3     1  UNL1        0.2417
     47 C          61.1775   95.6122   -3.4546 C.3     1  UNL1        0.1849
     48 O          62.0404   94.8994   -2.4559 O.3     1  UNL1       -0.3784
     49 H          62.7914   95.4645   -2.2158 H       1  UNL1        0.2106
@<TRIPOS>BOND
     1     1     2    1
     2     2     3    2
     3     3     4    1
     4     4    31    1
     5    31    32    1
     6    32    33    1
     7    33    34    1
     8    34    37    1
     9    37    38    1
    10    38    39    1
    11    39    40    1
    12    40    41   am
    13    41    42    2
    14    41    45    1
    15    45    46    1
    16    46    47    1
    17    47    48    1
    18    40    43    1
    19    43    44    1
    20    34    35    1
    21    35    36    1
    22     4     5    2
    23     5     6    1
    24     6     7    2
    25     7     8    1
    26     8    11    1
    27    11    12    1
    28    12    18    1
    29    18    20    1
    30    20    21    1
    31    21    22    1
    32    21    24    1
    33    24    25   ar
    34    25    26   ar
    35    26    27   ar
    36    27    28   ar
    37    28    29    1
    38    28    30   ar
    39    12    13    2
    40    13    14    1
    41    14    15    2
    42    15    16    1
    43    16    17    2
    44     8     9    2
    45     9    10    1
    46    10     2    1
    47    36    31    1
    48    10     6    1
    49    44    37    1
    50    16    11    1
    51    30    24   ar
    52    48    49    1
    53    18    19    1
    54    22    23    1
@<TRIPOS>MOLECULE
*****
 49 54 0 0 0
SMALL
GASTEIGER

@<TRIPOS>ATOM
      1 C          60.7954   96.4631    0.4486 C.3     1  UNL1        0.0312
      2 C          59.9893   95.2090    0.6150 C.2     1  UNL1        0.0136
      3 C          60.1599   94.3652    1.8433 C.2     1  UNL1        0.0107
      4 C          59.3539   93.1113    2.0097 C.2     1  UNL1        0.0509
      5 C          58.3772   92.7010    0.9477 C.2     1  UNL1        0.0613
      6 C          58.2066   93.5447   -0.2806 C.2     1  UNL1        0.2246
      7 N          57.3275   93.3952   -1.4868 N.2     1  UNL1       -0.0378
      8 C          57.5903   94.5569   -2.3986 C.2     1  UNL1        0.3605
      9 N          58.6317   95.4243   -1.7560 N.2     1  UNL1       -0.0547
     10 C          59.0126   94.7988   -0.4470 C.3     1  UNL1        0.2976
     11 C          56.9279   94.8072   -3.7210 C.3     1  UNL1        0.2246
     12 C          57.7213   94.7003   -4.9895 C.2     1  UNL1        0.0436
     13 C          57.0588   94.9506   -6.3118 C.2     1  UNL1        0.0288
     14 C          55.6030   95.3079   -6.3657 C.2     1  UNL1        0.0896
     15 N          54.8096   95.4148   -5.0972 N.am    1  UNL1       -0.1770
     16 C          55.4720   95.1645   -3.7749 C.2     1  UNL1        0.2627
     17 O          54.6786   95.2714   -2.5064 O.2     1  UNL1       -0.2719
     18 N          59.1771   94.3430   -4.9357 N.pl3   1  UNL1       -0.3329
     19 H          59.5450   93.8952   -4.1398 H       1  UNL1        0.1466
     20 C          60.0725   94.6679   -6.0944 C.3     1  UNL1        0.1211
     21 C          61.4801   95.1244   -5.8495 C.3     1  UNL1        0.1522
     22 O          61.9661   96.4113   -6.4477 O.3     1  UNL1       -0.3783
     23 H          61.2508   96.8203   -6.9596 H       1  UNL1        0.2109
     24 C          62.4019   94.2941   -5.0064 C.ar    1  UNL1        0.0067
     25 C          63.3678   93.3496   -5.6583 C.ar    1  UNL1       -0.0018
     26 C          64.2896   92.5192   -4.8152 C.ar    1  UNL1        0.0006
     27 C          64.2455   92.6333   -3.3202 C.ar    1  UNL1        0.0114
     28 C          63.2796   93.5778   -2.6683 C.ar    1  UNL1        0.0574
     29 CL         63.2355   93.6920   -1.1733 Cl      1  UNL1       -0.0823
     30 C          62.3578   94.4082   -3.5114 C.ar    1  UNL1        0.0095
     31 N          59.5246   92.2674    3.2382 N.pl3   1  UNL1       -0.3073
     32 C          60.8843   91.7590    3.6159 C.3     1  UNL1        0.0922
     33 C          61.0549   90.9152    4.8442 C.3     1  UNL1        0.0374
     34 C          59.8658   90.5799    5.6949 C.3     1  UNL1        0.0610
     35 C          58.5061   91.0884    5.3172 C.3     1  UNL1        0.0374
     36 C          58.3355   91.9322    4.0889 C.3     1  UNL1        0.0922
     37 N          60.0364   89.7361    6.9233 N.3     1  UNL1       -0.2710
     38 C          60.2682   88.2599    6.7929 C.3     1  UNL1        0.0940
     39 C          60.4388   87.4160    8.0212 C.3     1  UNL1        0.1141
     40 N          60.3775   88.0484    9.3800 N.am    1  UNL1       -0.2432
     41 C          60.5481   87.2046   10.6084 C.2     1  UNL1        0.4050
     42 O          60.4868   87.8370   11.9672 O.2     1  UNL1       -0.2262
     43 C          60.1457   89.5247    9.5104 C.3     1  UNL1        0.1141
     44 C          59.9752   90.3685    8.2821 C.3     1  UNL1        0.0940
     45 O          60.7799   85.7284   10.4779 O.3     1  UNL1       -0.4318
     46 C          62.1611   85.1683   10.6465 C.3     1  UNL1        0.2417
     47 C          62.6988   84.8989   12.0207 C.3     1  UNL1        0.1849
     48 O          62.9719   86.0392   12.9561 O.3     1  UNL1       -0.3784
     49 H          63.6943   86.5814   12.6026 H       1  UNL1        0.2106
@<TRIPOS>BOND
     1     1     2    1
     2     2     3    2
     3     3     4    1
     4     4    31    1
     5    31    32    1
     6    32    33    1
     7    33    34    1
     8    34    37    1
     9    37    38    1
    10    38    39    1
    11    39    40    1
    12    40    41   am
    13    41    42    2
    14    41    45    1
    15    45    46    1
    16    46    47    1
    17    47    48    1
    18    40    43    1
    19    43    44    1
    20    34    35    1
    21    35    36    1
    22     4     5    2
    23     5     6    1
    24     6     7    2
    25     7     8    1
    26     8    11    1
    27    11    12    1
    28    12    18    1
    29    18    20    1
    30    20    21    1
    31    21    22    1
    32    21    24    1
    33    24    25   ar
    34    25    26   ar
    35    26    27   ar
    36    27    28   ar
    37    28    29    1
    38    28    30   ar
    39    12    13    2
    40    13    14    1
    41    14    15    2
    42    15    16    1
    43    16    17    2
    44     8     9    2
    45     9    10    1
    46    10     2    1
    47    36    31    1
    48    10     6    1
    49    44    37    1
    50    16    11    1
    51    30    24   ar
    52    48    49    1
    53    18    19    1
    54    22    23    1
@<TRIPOS>MOLECULE
*****
 49 54 0 0 0
SMALL
GASTEIGER

@<TRIPOS>ATOM
      1 C          56.6647   91.4400    5.0692 C.3     1  UNL1        0.0312
      2 C          58.1546   91.3803    4.9056 C.2     1  UNL1        0.0136
      3 C          58.7973   91.9483    3.6750 C.2     1  UNL1        0.0107
      4 C          60.2870   91.8887    3.5113 C.2     1  UNL1        0.0509
      5 C          61.1343   91.2610    4.5783 C.2     1  UNL1        0.0613
      6 C          60.4916   90.6930    5.8088 C.2     1  UNL1        0.2246
      7 N          61.0643   90.0180    7.0198 N.2     1  UNL1       -0.0378
      8 C          59.9284   89.6605    7.9319 C.2     1  UNL1        0.3605
      9 N          58.6536   90.1146    7.2846 N.2     1  UNL1       -0.0547
     10 C          59.0017   90.7527    5.9725 C.3     1  UNL1        0.2976
     11 C          60.0464   88.9702    9.2583 C.3     1  UNL1        0.2246
     12 C          60.4686   87.5322    9.3205 C.2     1  UNL1        0.0436
     13 C          60.5866   86.8419   10.6471 C.2     1  UNL1        0.0288
     14 C          60.2825   87.5896   11.9114 C.2     1  UNL1        0.0896
     15 N          59.8604   89.0277   11.8492 N.am    1  UNL1       -0.1770
     16 C          59.7423   89.7179   10.5226 C.2     1  UNL1        0.2627
     17 O          59.3202   91.1559   10.4604 O.2     1  UNL1       -0.2719
     18 N          60.7727   86.7844    8.0563 N.pl3   1  UNL1       -0.3329
     19 H          60.5420   87.1781    7.1839 H       1  UNL1        0.1466
     20 C          61.4282   85.4368    8.1211 C.3     1  UNL1        0.1211
     21 C          62.8473   85.3150    8.5913 C.3     1  UNL1        0.1522
     22 O          63.9430   86.0362    7.8637 O.3     1  UNL1       -0.3783
     23 H          63.5657   86.5312    7.1197 H       1  UNL1        0.2109
     24 C          63.1708   84.4719    9.7890 C.ar    1  UNL1        0.0067
     25 C          64.0248   83.2483    9.6364 C.ar    1  UNL1       -0.0018
     26 C          64.3483   82.4053   10.8342 C.ar    1  UNL1        0.0006
     27 C          63.8178   82.7859   12.1847 C.ar    1  UNL1        0.0114
     28 C          62.9639   84.0096   12.3373 C.ar    1  UNL1        0.0574
     29 CL         62.4334   84.3902   13.6877 Cl      1  UNL1       -0.0823
     30 C          62.6404   84.8526   11.1395 C.ar    1  UNL1        0.0095
     31 N          60.9297   92.4567    2.2807 N.pl3   1  UNL1       -0.3073
     32 C          62.4128   92.6783    2.2433 C.3     1  UNL1        0.0922
     33 C          63.0555   93.2463    1.0128 C.3     1  UNL1        0.0374
     34 C          62.2151   93.5927   -0.1804 C.3     1  UNL1        0.0610
     35 C          60.7321   93.3711   -0.1431 C.3     1  UNL1        0.0374
     36 C          60.0894   92.8031    1.0875 C.3     1  UNL1        0.0922
     37 N          62.8577   94.1607   -1.4110 N.3     1  UNL1       -0.2710
     38 C          62.3166   93.8159   -2.7669 C.3     1  UNL1        0.0940
     39 C          62.9592   94.3839   -3.9976 C.3     1  UNL1        0.1141
     40 N          64.1429   95.2966   -3.8724 N.am    1  UNL1       -0.2432
     41 C          64.7855   95.8646   -5.1030 C.2     1  UNL1        0.4050
     42 O          65.9692   96.7774   -4.9778 O.2     1  UNL1       -0.2262
     43 C          64.6840   95.6414   -2.5165 C.3     1  UNL1        0.1141
     44 C          64.0415   95.0734   -1.2859 C.3     1  UNL1        0.0940
     45 O          64.2443   95.5198   -6.4588 O.3     1  UNL1       -0.4318
     46 C          64.8947   94.4417   -7.2740 C.3     1  UNL1        0.2417
     47 C          64.8953   93.0252   -6.7805 C.3     1  UNL1        0.1849
     48 O          65.9131   92.5831   -5.7713 O.3     1  UNL1       -0.3784
     49 H          66.7977   92.6171   -6.1679 H       1  UNL1        0.2106
@<TRIPOS>BOND
     1     1     2    1
     2     2     3    2
     3     3     4    1
     4     4    31    1
     5    31    32    1
     6    32    33    1
     7    33    34    1
     8    34    37    1
     9    37    38    1
    10    38    39    1
    11    39    40    1
    12    40    41   am
    13    41    42    2
    14    41    45    1
    15    45    46    1
    16    46    47    1
    17    47    48    1
    18    40    43    1
    19    43    44    1
    20    34    35    1
    21    35    36    1
    22     4     5    2
    23     5     6    1
    24     6     7    2
    25     7     8    1
    26     8    11    1
    27    11    12    1
    28    12    18    1
    29    18    20    1
    30    20    21    1
    31    21    22    1
    32    21    24    1
    33    24    25   ar
    34    25    26   ar
    35    26    27   ar
    36    27    28   ar
    37    28    29    1
    38    28    30   ar
    39    12    13    2
    40    13    14    1
    41    14    15    2
    42    15    16    1
    43    16    17    2
    44     8     9    2
    45     9    10    1
    46    10     2    1
    47    36    31    1
    48    10     6    1
    49    44    37    1
    50    16    11    1
    51    30    24   ar
    52    48    49    1
    53    18    19    1
    54    22    23    1
