@<TRIPOS>MOLECULE
*****
 31 32 0 0 0
SMALL
GASTEIGER

@<TRIPOS>ATOM
      1 C          60.9479   86.9952    8.9442 C.ar    1  UNL1       -0.0185
      2 C          60.1794   86.4845    7.7616 C.ar    1  UNL1       -0.0041
      3 C          59.4072   87.4390    6.8999 C.ar    1  UNL1        0.0057
      4 C          59.4035   88.9043    7.2207 C.ar    1  UNL1        0.0696
      5 C          60.1720   89.4150    8.4033 C.ar    1  UNL1        0.0095
      6 C          60.9442   88.4604    9.2650 C.ar    1  UNL1        0.0677
      7 C          64.0367   83.1771   12.3911 C.2     1  UNL1        0.2251
      8 O          65.0742   82.2841   11.7778 O.2     1  UNL1       -0.2749
      9 N          63.2645   84.1316   11.5294 N.am    1  UNL1       -0.2795
     10 C          62.2270   85.0245   12.1427 C.3     1  UNL1        0.0937
     11 C          61.4548   85.9791   11.2810 C.3     1  UNL1        0.0259
     12 C          61.7201   86.0407    9.8059 C.3     1  UNL1        0.0257
     13 C          62.7576   85.1477    9.1926 C.3     1  UNL1        0.0259
     14 C          63.5298   84.1932   10.0543 C.3     1  UNL1        0.0937
     15 C          62.7219   82.1869   14.4013 C.3     1  UNL1        0.0096
     16 C          63.7714   83.1155   13.8661 C.3     1  UNL1        0.0767
     17 C          64.5556   83.9824   14.8061 C.3     1  UNL1        0.0096
     18 C          58.6313   89.8588    6.3590 C.2     1  UNL1        0.3078
     19 O          57.1372   89.7545    6.2769 O.2     1  UNL1       -0.2516
     20 N          59.3532   90.9176    5.5794 N.am    1  UNL1       -0.1708
     21 H          60.3338   90.9860    5.6333 H       1  UNL1        0.2545
     22 C          58.5810   91.8721    4.7177 C.2     1  UNL1        0.3751
     23 N          57.2001   92.2972    5.1205 N.pl3   1  UNL1       -0.1313
     24 N          59.1898   92.4015    3.4531 N.pl3   1  UNL1       -0.2906
     25 H          56.8005   91.9498    5.9505 H       1  UNL1        0.3060
     26 H          60.0961   92.1225    3.1887 H       1  UNL1        0.2545
     27 H          58.6830   93.0280    2.8875 H       1  UNL1        0.2545
     28 C          61.7127   88.9712   10.4477 C.3     1  UNL1        0.4183
     29 F          62.4812   89.4820   11.6302 F       1  UNL1       -0.1659
     30 F          60.4450   89.0267   11.2476 F       1  UNL1       -0.1659
     31 F          62.9804   88.9157    9.6478 F       1  UNL1       -0.1659
@<TRIPOS>BOND
     1    15    16    1
     2    16    17    1
     3    16     7    1
     4     7     8    2
     5     7     9   am
     6     9    10    1
     7    10    11    1
     8    11    12    1
     9    12     1    1
    10     1     2   ar
    11     2     3   ar
    12     3     4   ar
    13     4    18    1
    14    18    19    2
    15    18    20   am
    16    20    22    1
    17    22    23    2
    18    22    24    1
    19     4     5   ar
    20     5     6   ar
    21     6    28    1
    22    28    29    1
    23    28    30    1
    24    28    31    1
    25    12    13    1
    26    13    14    1
    27    14     9    1
    28     6     1   ar
    29    20    21    1
    30    23    25    1
    31    24    26    1
    32    24    27    1
@<TRIPOS>MOLECULE
*****
 31 32 0 0 0
SMALL
GASTEIGER

@<TRIPOS>ATOM
      1 C          64.8737   91.4613   13.1963 C.ar    1  UNL1       -0.0185
      2 C          64.2224   91.6697   11.8613 C.ar    1  UNL1       -0.0041
      3 C          64.6464   92.8152   10.9906 C.ar    1  UNL1        0.0057
      4 C          65.7217   93.7522   11.4548 C.ar    1  UNL1        0.0696
      5 C          66.3730   93.5439   12.7898 C.ar    1  UNL1        0.0095
      6 C          65.9490   92.3984   13.6606 C.ar    1  UNL1        0.0677
      7 C          63.1778   86.8796   16.6793 C.2     1  UNL1        0.2251
      8 O          62.6570   87.1409   18.0615 O.2     1  UNL1       -0.2749
      9 N          63.6018   88.0250   15.8086 N.am    1  UNL1       -0.2795
     10 C          64.1226   87.7637   14.4264 C.3     1  UNL1        0.0937
     11 C          64.5466   88.9091   13.5557 C.3     1  UNL1        0.0259
     12 C          64.4497   90.3159   14.0671 C.3     1  UNL1        0.0257
     13 C          63.9289   90.5772   15.4492 C.3     1  UNL1        0.0259
     14 C          63.5049   89.4318   16.3200 C.3     1  UNL1        0.0937
     15 C          62.0301   84.6586   15.9722 C.3     1  UNL1        0.0096
     16 C          63.2746   85.4728   16.1679 C.3     1  UNL1        0.0767
     17 C          64.6160   84.8802   15.8522 C.3     1  UNL1        0.0096
     18 C          66.1457   94.8977   10.5841 C.2     1  UNL1        0.3078
     19 O          66.5195   96.2119   11.2029 O.2     1  UNL1       -0.2516
     20 N          66.1958   94.7289    9.0945 N.am    1  UNL1       -0.1708
     21 H          65.9504   93.8663    8.6883 H       1  UNL1        0.2545
     22 C          66.6198   95.8743    8.2237 C.2     1  UNL1        0.3751
     23 N          67.9244   96.5685    8.4802 N.pl3   1  UNL1       -0.1313
     24 N          65.7390   96.3256    7.0964 N.pl3   1  UNL1       -0.2906
     25 H          68.5025   96.2724    9.2201 H       1  UNL1        0.3060
     26 H          64.8827   95.8699    6.9281 H       1  UNL1        0.2545
     27 H          66.0172   97.0773    6.5249 H       1  UNL1        0.2545
     28 C          66.6004   92.1901   14.9957 C.3     1  UNL1        0.4183
     29 F          67.2517   91.9818   16.3307 F       1  UNL1       -0.1659
     30 F          67.5592   91.2171   14.3761 F       1  UNL1       -0.1659
     31 F          65.6415   93.1630   15.6153 F       1  UNL1       -0.1659
@<TRIPOS>BOND
     1    15    16    1
     2    16    17    1
     3    16     7    1
     4     7     8    2
     5     7     9   am
     6     9    10    1
     7    10    11    1
     8    11    12    1
     9    12     1    1
    10     1     2   ar
    11     2     3   ar
    12     3     4   ar
    13     4    18    1
    14    18    19    2
    15    18    20   am
    16    20    22    1
    17    22    23    2
    18    22    24    1
    19     4     5   ar
    20     5     6   ar
    21     6    28    1
    22    28    29    1
    23    28    30    1
    24    28    31    1
    25    12    13    1
    26    13    14    1
    27    14     9    1
    28     6     1   ar
    29    20    21    1
    30    23    25    1
    31    24    26    1
    32    24    27    1
@<TRIPOS>MOLECULE
*****
 31 32 0 0 0
SMALL
GASTEIGER

@<TRIPOS>ATOM
      1 C          64.6916   90.7261   13.4490 C.ar    1  UNL1       -0.0185
      2 C          65.8284   91.5630   13.9562 C.ar    1  UNL1       -0.0041
      3 C          66.2493   92.7910   13.2046 C.ar    1  UNL1        0.0057
      4 C          65.5334   93.1821   11.9458 C.ar    1  UNL1        0.0696
      5 C          64.3966   92.3452   11.4386 C.ar    1  UNL1        0.0095
      6 C          63.9757   91.1172   12.1902 C.ar    1  UNL1        0.0677
      7 C          63.0080   85.8141   16.4552 C.2     1  UNL1        0.2251
      8 O          62.5221   85.9301   17.8696 O.2     1  UNL1       -0.2749
      9 N          63.4289   87.0421   15.7037 N.am    1  UNL1       -0.2795
     10 C          63.9148   86.9261   14.2893 C.3     1  UNL1        0.0937
     11 C          64.3357   88.1541   13.5378 C.3     1  UNL1        0.0259
     12 C          64.2707   89.4981   14.2005 C.3     1  UNL1        0.0257
     13 C          63.7848   89.6141   15.6149 C.3     1  UNL1        0.0259
     14 C          63.3639   88.3861   16.3664 C.3     1  UNL1        0.0937
     15 C          61.8223   83.8339   15.2624 C.3     1  UNL1        0.0096
     16 C          63.0730   84.4701   15.7925 C.3     1  UNL1        0.0767
     17 C          64.3888   83.7621   15.6597 C.3     1  UNL1        0.0096
     18 C          65.9543   94.4101   11.1943 C.2     1  UNL1        0.3078
     19 O          66.0943   95.7187   11.9139 O.2     1  UNL1       -0.2516
     20 N          66.2352   94.3295    9.7230 N.am    1  UNL1       -0.1708
     21 H          66.1433   93.4707    9.2507 H       1  UNL1        0.2545
     22 C          66.6561   95.5575    8.9715 C.2     1  UNL1        0.3751
     23 N          67.6768   96.4849    9.5615 N.pl3   1  UNL1       -0.1313
     24 N          66.0562   95.8582    7.6298 N.pl3   1  UNL1       -0.2906
     25 H          68.0705   96.2876   10.4420 H       1  UNL1        0.3060
     26 H          65.3863   95.2495    7.2426 H       1  UNL1        0.2545
     27 H          66.3325   96.6641    7.1365 H       1  UNL1        0.2545
     28 C          62.8389   90.2803   11.6829 C.3     1  UNL1        0.4183
     29 F          61.7021   89.4434   11.1757 F       1  UNL1       -0.1659
     30 F          63.5985   90.0158   10.4168 F       1  UNL1       -0.1659
     31 F          62.0793   90.5447   12.9490 F       1  UNL1       -0.1659
@<TRIPOS>BOND
     1    15    16    1
     2    16    17    1
     3    16     7    1
     4     7     8    2
     5     7     9   am
     6     9    10    1
     7    10    11    1
     8    11    12    1
     9    12     1    1
    10     1     2   ar
    11     2     3   ar
    12     3     4   ar
    13     4    18    1
    14    18    19    2
    15    18    20   am
    16    20    22    1
    17    22    23    2
    18    22    24    1
    19     4     5   ar
    20     5     6   ar
    21     6    28    1
    22    28    29    1
    23    28    30    1
    24    28    31    1
    25    12    13    1
    26    13    14    1
    27    14     9    1
    28     6     1   ar
    29    20    21    1
    30    23    25    1
    31    24    26    1
    32    24    27    1
@<TRIPOS>MOLECULE
*****
 31 32 0 0 0
SMALL
GASTEIGER

@<TRIPOS>ATOM
      1 C          63.5530   86.7634   13.2657 C.ar    1  UNL1       -0.0185
      2 C          63.2224   87.7714   12.2053 C.ar    1  UNL1       -0.0041
      3 C          63.5353   89.2218   12.4255 C.ar    1  UNL1        0.0057
      4 C          64.1788   89.6642   13.7061 C.ar    1  UNL1        0.0696
      5 C          64.5095   88.6562   14.7666 C.ar    1  UNL1        0.0095
      6 C          64.1965   87.2058   14.5464 C.ar    1  UNL1        0.0677
      7 C          62.3014   80.9619   12.3850 C.2     1  UNL1        0.2251
      8 O          62.5750   80.3295   11.0526 O.2     1  UNL1       -0.2749
      9 N          62.6143   82.4123   12.6052 N.am    1  UNL1       -0.2795
     10 C          62.3407   83.0447   13.9375 C.3     1  UNL1        0.0937
     11 C          62.6536   84.4951   14.1577 C.3     1  UNL1        0.0259
     12 C          63.2401   85.3130   13.0456 C.3     1  UNL1        0.0257
     13 C          63.5137   84.6806   11.7132 C.3     1  UNL1        0.0259
     14 C          63.2008   83.2303   11.4930 C.3     1  UNL1        0.0937
     15 C          62.4474   78.9391   14.0088 C.3     1  UNL1        0.0096
     16 C          61.7149   80.1439   13.4971 C.3     1  UNL1        0.0767
     17 C          60.3959   80.5308   14.0977 C.3     1  UNL1        0.0096
     18 C          64.4917   91.1146   13.9263 C.2     1  UNL1        0.3078
     19 O          63.7744   91.8825   14.9966 O.2     1  UNL1       -0.2516
     20 N          65.5220   91.7970   13.0762 N.am    1  UNL1       -0.1708
     21 H          65.9929   91.2930   12.3737 H       1  UNL1        0.2545
     22 C          65.8349   93.2474   13.2964 C.2     1  UNL1        0.3751
     23 N          66.1183   93.7518   14.6803 N.pl3   1  UNL1       -0.1313
     24 N          65.8644   94.1934   12.1326 N.pl3   1  UNL1       -0.2906
     25 H          66.0990   93.1310   15.4441 H       1  UNL1        0.3060
     26 H          65.6784   93.8623   11.2243 H       1  UNL1        0.2545
     27 H          66.0698   95.1453   12.2771 H       1  UNL1        0.2545
     28 C          64.5272   86.1978   15.6069 C.3     1  UNL1        0.4183
     29 F          64.8578   85.1899   16.6674 F       1  UNL1       -0.1659
     30 F          65.7118   85.7441   14.8064 F       1  UNL1       -0.1659
     31 F          63.3427   86.6516   16.4075 F       1  UNL1       -0.1659
@<TRIPOS>BOND
     1    15    16    1
     2    16    17    1
     3    16     7    1
     4     7     8    2
     5     7     9   am
     6     9    10    1
     7    10    11    1
     8    11    12    1
     9    12     1    1
    10     1     2   ar
    11     2     3   ar
    12     3     4   ar
    13     4    18    1
    14    18    19    2
    15    18    20   am
    16    20    22    1
    17    22    23    2
    18    22    24    1
    19     4     5   ar
    20     5     6   ar
    21     6    28    1
    22    28    29    1
    23    28    30    1
    24    28    31    1
    25    12    13    1
    26    13    14    1
    27    14     9    1
    28     6     1   ar
    29    20    21    1
    30    23    25    1
    31    24    26    1
    32    24    27    1
@<TRIPOS>MOLECULE
*****
 31 32 0 0 0
SMALL
GASTEIGER

@<TRIPOS>ATOM
      1 C          61.0766   87.0720    8.8958 C.ar    1  UNL1       -0.0185
      2 C          60.8445   88.4681    9.3927 C.ar    1  UNL1       -0.0041
      3 C          60.1197   89.4598    8.5318 C.ar    1  UNL1        0.0057
      4 C          59.6270   89.0554    7.1740 C.ar    1  UNL1        0.0696
      5 C          59.8591   87.6593    6.6771 C.ar    1  UNL1        0.0095
      6 C          60.5839   86.6676    7.5381 C.ar    1  UNL1        0.0677
      7 C          63.9758   83.1051   12.3395 C.2     1  UNL1        0.2251
      8 O          65.0212   82.2130   11.7384 O.2     1  UNL1       -0.2749
      9 N          63.2510   84.0969   11.4786 N.am    1  UNL1       -0.2795
     10 C          62.2057   84.9890   12.0796 C.3     1  UNL1        0.0937
     11 C          61.4809   85.9807   11.2187 C.3     1  UNL1        0.0259
     12 C          61.8014   86.0803    9.7567 C.3     1  UNL1        0.0257
     13 C          62.8467   85.1881    9.1557 C.3     1  UNL1        0.0259
     14 C          63.5715   84.1964   10.0166 C.3     1  UNL1        0.0937
     15 C          64.4089   83.8414   14.7931 C.3     1  UNL1        0.0096
     16 C          63.6553   83.0056   13.8014 C.3     1  UNL1        0.0767
     17 C          62.5811   82.0702   14.2717 C.3     1  UNL1        0.0096
     18 C          58.9021   90.0471    6.3131 C.2     1  UNL1        0.3078
     19 O          57.4089   89.9813    6.1877 O.2     1  UNL1       -0.2516
     20 N          59.6706   91.1047    5.5776 N.am    1  UNL1       -0.1708
     21 H          60.6507   91.1479    5.6599 H       1  UNL1        0.2545
     22 C          58.9458   92.0964    4.7167 C.2     1  UNL1        0.3751
     23 N          57.5029   92.4075    4.9832 N.pl3   1  UNL1       -0.1313
     24 N          59.6640   92.7769    3.5892 N.pl3   1  UNL1       -0.2906
     25 H          57.0315   91.9609    5.7232 H       1  UNL1        0.3060
     26 H          60.6110   92.5726    3.4143 H       1  UNL1        0.2545
     27 H          59.1883   93.4278    3.0241 H       1  UNL1        0.2545
     28 C          60.8159   85.2714    7.0411 C.3     1  UNL1        0.4183
     29 F          61.0480   83.8753    6.5442 F       1  UNL1       -0.1659
     30 F          62.2268   85.6334    6.6829 F       1  UNL1       -0.1659
     31 F          59.4051   84.9094    7.3993 F       1  UNL1       -0.1659
@<TRIPOS>BOND
     1    15    16    1
     2    16    17    1
     3    16     7    1
     4     7     8    2
     5     7     9   am
     6     9    10    1
     7    10    11    1
     8    11    12    1
     9    12     1    1
    10     1     2   ar
    11     2     3   ar
    12     3     4   ar
    13     4    18    1
    14    18    19    2
    15    18    20   am
    16    20    22    1
    17    22    23    2
    18    22    24    1
    19     4     5   ar
    20     5     6   ar
    21     6    28    1
    22    28    29    1
    23    28    30    1
    24    28    31    1
    25    12    13    1
    26    13    14    1
    27    14     9    1
    28     6     1   ar
    29    20    21    1
    30    23    25    1
    31    24    26    1
    32    24    27    1
@<TRIPOS>MOLECULE
*****
 31 32 0 0 0
SMALL
GASTEIGER

@<TRIPOS>ATOM
      1 C          63.5302   86.4282   13.2521 C.ar    1  UNL1       -0.0185
      2 C          63.1547   87.4292   12.2000 C.ar    1  UNL1       -0.0041
      3 C          63.4267   88.8877   12.4213 C.ar    1  UNL1        0.0057
      4 C          64.0741   89.3451   13.6946 C.ar    1  UNL1        0.0696
      5 C          64.4496   88.3441   14.7467 C.ar    1  UNL1        0.0095
      6 C          64.1776   86.8857   14.5254 C.ar    1  UNL1        0.0677
      7 C          62.4424   80.5944   12.3669 C.2     1  UNL1        0.2251
      8 O          61.8172   79.7744   13.4562 O.2     1  UNL1       -0.2749
      9 N          62.7143   82.0529   12.5882 N.am    1  UNL1       -0.2795
     10 C          63.3395   82.8729   11.4989 C.3     1  UNL1        0.0937
     11 C          63.6114   84.3314   11.7202 C.3     1  UNL1        0.0259
     12 C          63.2582   84.9698   13.0308 C.3     1  UNL1        0.0257
     13 C          62.6331   84.1497   14.1201 C.3     1  UNL1        0.0259
     14 C          62.3611   82.6913   13.8988 C.3     1  UNL1        0.0937
     15 C          63.3145   80.7973    9.9280 C.3     1  UNL1        0.0096
     16 C          62.7956   79.9561   11.0563 C.3     1  UNL1        0.0767
     17 C          62.6298   78.4764   10.8740 C.3     1  UNL1        0.0096
     18 C          64.3461   90.8036   13.9159 C.2     1  UNL1        0.3078
     19 O          63.5407   91.5726   14.9208 O.2     1  UNL1       -0.2516
     20 N          65.4234   91.4929   13.1323 N.am    1  UNL1       -0.1708
     21 H          65.9520   90.9882   12.4728 H       1  UNL1        0.2545
     22 C          65.6954   92.9514   13.3536 C.2     1  UNL1        0.3751
     23 N          65.9264   93.4690   14.7424 N.pl3   1  UNL1       -0.1313
     24 N          65.7363   93.8923   12.1860 N.pl3   1  UNL1       -0.2906
     25 H          65.8995   92.8514   15.5087 H       1  UNL1        0.3060
     26 H          65.5847   93.5526   11.2745 H       1  UNL1        0.2545
     27 H          65.9148   94.8495   12.3313 H       1  UNL1        0.2545
     28 C          64.5531   85.8846   15.5776 C.3     1  UNL1        0.4183
     29 F          64.9286   84.8836   16.6297 F       1  UNL1       -0.1659
     30 F          63.3612   86.2930   16.3916 F       1  UNL1       -0.1659
     31 F          65.7450   85.4763   14.7637 F       1  UNL1       -0.1659
@<TRIPOS>BOND
     1    15    16    1
     2    16    17    1
     3    16     7    1
     4     7     8    2
     5     7     9   am
     6     9    10    1
     7    10    11    1
     8    11    12    1
     9    12     1    1
    10     1     2   ar
    11     2     3   ar
    12     3     4   ar
    13     4    18    1
    14    18    19    2
    15    18    20   am
    16    20    22    1
    17    22    23    2
    18    22    24    1
    19     4     5   ar
    20     5     6   ar
    21     6    28    1
    22    28    29    1
    23    28    30    1
    24    28    31    1
    25    12    13    1
    26    13    14    1
    27    14     9    1
    28     6     1   ar
    29    20    21    1
    30    23    25    1
    31    24    26    1
    32    24    27    1
@<TRIPOS>MOLECULE
*****
 31 32 0 0 0
SMALL
GASTEIGER

@<TRIPOS>ATOM
      1 C          61.9136   92.9654    2.0296 C.ar    1  UNL1       -0.0185
      2 C          62.5825   91.8968    2.8423 C.ar    1  UNL1       -0.0041
      3 C          61.8349   91.2208    3.9532 C.ar    1  UNL1        0.0057
      4 C          60.4182   91.6134    4.2513 C.ar    1  UNL1        0.0696
      5 C          59.7493   92.6820    3.4387 C.ar    1  UNL1        0.0095
      6 C          60.4969   93.3580    2.3278 C.ar    1  UNL1        0.0677
      7 C          64.9042   95.6694   -2.4138 C.2     1  UNL1        0.2251
      8 O          66.1132   96.5023   -2.1061 O.2     1  UNL1       -0.2749
      9 N          64.1566   94.9934   -1.3030 N.am    1  UNL1       -0.2795
     10 C          62.9476   94.1606   -1.6107 C.3     1  UNL1        0.0937
     11 C          62.1999   93.4846   -0.4999 C.3     1  UNL1        0.0259
     12 C          62.6612   93.6414    0.9188 C.3     1  UNL1        0.0257
     13 C          63.8702   94.4742    1.2265 C.3     1  UNL1        0.0259
     14 C          64.6179   95.1502    0.1157 C.3     1  UNL1        0.0937
     15 C          64.8734   94.3197   -4.6336 C.3     1  UNL1        0.0096
     16 C          64.4429   95.5126   -3.8325 C.3     1  UNL1        0.0767
     17 C          63.5512   96.5487   -4.4501 C.3     1  UNL1        0.0096
     18 C          59.6706   90.9374    5.3622 C.2     1  UNL1        0.3078
     19 O          58.1980   91.1712    5.5261 O.2     1  UNL1       -0.2516
     20 N          60.3954   90.0276    6.3091 N.am    1  UNL1       -0.1708
     21 H          61.3619   89.8741    6.2015 H       1  UNL1        0.2545
     22 C          59.6478   89.3516    7.4200 C.2     1  UNL1        0.3751
     23 N          58.5560   88.3732    7.1025 N.pl3   1  UNL1       -0.1313
     24 N          59.9920   89.6539    8.8484 N.pl3   1  UNL1       -0.2906
     25 H          58.3301   88.1748    6.1651 H       1  UNL1        0.3060
     26 H          60.7086   90.2960    9.0567 H       1  UNL1        0.2545
     27 H          59.5013   89.2102    9.5775 H       1  UNL1        0.2545
     28 C          59.8279   94.4267    1.5151 C.3     1  UNL1        0.4183
     29 F          59.1589   95.4953    0.7025 F       1  UNL1       -0.1659
     30 F          59.1390   93.3742    0.6981 F       1  UNL1       -0.1659
     31 F          60.5168   95.4792    2.3321 F       1  UNL1       -0.1659
@<TRIPOS>BOND
     1    15    16    1
     2    16    17    1
     3    16     7    1
     4     7     8    2
     5     7     9   am
     6     9    10    1
     7    10    11    1
     8    11    12    1
     9    12     1    1
    10     1     2   ar
    11     2     3   ar
    12     3     4   ar
    13     4    18    1
    14    18    19    2
    15    18    20   am
    16    20    22    1
    17    22    23    2
    18    22    24    1
    19     4     5   ar
    20     5     6   ar
    21     6    28    1
    22    28    29    1
    23    28    30    1
    24    28    31    1
    25    12    13    1
    26    13    14    1
    27    14     9    1
    28     6     1   ar
    29    20    21    1
    30    23    25    1
    31    24    26    1
    32    24    27    1
@<TRIPOS>MOLECULE
*****
 31 32 0 0 0
SMALL
GASTEIGER

@<TRIPOS>ATOM
      1 C          62.7079   93.6282   -0.3454 C.ar    1  UNL1       -0.0185
      2 C          63.5260   93.1208    0.8049 C.ar    1  UNL1       -0.0041
      3 C          62.8475   92.6357    2.0516 C.ar    1  UNL1        0.0057
      4 C          61.3508   92.6579    2.1479 C.ar    1  UNL1        0.0696
      5 C          60.5326   93.1653    0.9976 C.ar    1  UNL1        0.0095
      6 C          61.2112   93.6504   -0.2490 C.ar    1  UNL1        0.0677
      7 C          65.4222   95.5687   -5.3321 C.2     1  UNL1        0.2251
      8 O          66.1925   96.8556   -5.3144 O.2     1  UNL1       -0.2749
      9 N          64.7436   95.0836   -4.0854 N.am    1  UNL1       -0.2795
     10 C          63.9734   93.7966   -4.1031 C.3     1  UNL1        0.0937
     11 C          63.2948   93.3115   -2.8564 C.3     1  UNL1        0.0259
     12 C          63.3865   94.1133   -1.5921 C.3     1  UNL1        0.0257
     13 C          64.1568   95.4003   -1.5744 C.3     1  UNL1        0.0259
     14 C          64.8353   95.8854   -2.8211 C.3     1  UNL1        0.0937
     15 C          64.1403   94.9191   -7.4965 C.3     1  UNL1        0.0096
     16 C          65.3305   94.7668   -6.5964 C.3     1  UNL1        0.0767
     17 C          66.4291   93.8126   -6.9608 C.3     1  UNL1        0.0096
     18 C          60.6722   92.1728    3.3946 C.2     1  UNL1        0.3078
     19 O          61.4828   91.5720    4.5045 O.2     1  UNL1       -0.2516
     20 N          59.1829   92.2885    3.5314 N.am    1  UNL1       -0.1708
     21 H          58.6509   92.6829    2.8030 H       1  UNL1        0.2545
     22 C          58.5044   91.8034    4.7781 C.2     1  UNL1        0.3751
     23 N          57.1061   92.2464    5.0918 N.pl3   1  UNL1       -0.1313
     24 N          59.2242   90.8752    5.7111 N.pl3   1  UNL1       -0.2906
     25 H          56.6337   92.8556    4.4794 H       1  UNL1        0.3060
     26 H          60.1419   90.5845    5.5052 H       1  UNL1        0.2545
     27 H          58.7788   90.5568    6.5294 H       1  UNL1        0.2545
     28 C          60.3930   94.1578   -1.3994 C.3     1  UNL1        0.4183
     29 F          59.5748   94.6652   -2.5496 F       1  UNL1       -0.1659
     30 F          60.2037   92.7513   -1.8851 F       1  UNL1       -0.1659
     31 F          60.5823   95.5642   -0.9136 F       1  UNL1       -0.1659
@<TRIPOS>BOND
     1    15    16    1
     2    16    17    1
     3    16     7    1
     4     7     8    2
     5     7     9   am
     6     9    10    1
     7    10    11    1
     8    11    12    1
     9    12     1    1
    10     1     2   ar
    11     2     3   ar
    12     3     4   ar
    13     4    18    1
    14    18    19    2
    15    18    20   am
    16    20    22    1
    17    22    23    2
    18    22    24    1
    19     4     5   ar
    20     5     6   ar
    21     6    28    1
    22    28    29    1
    23    28    30    1
    24    28    31    1
    25    12    13    1
    26    13    14    1
    27    14     9    1
    28     6     1   ar
    29    20    21    1
    30    23    25    1
    31    24    26    1
    32    24    27    1
@<TRIPOS>MOLECULE
*****
 31 32 0 0 0
SMALL
GASTEIGER

@<TRIPOS>ATOM
      1 C          61.1907   87.5607    9.5862 C.ar    1  UNL1       -0.0185
      2 C          60.5975   88.9033    9.8956 C.ar    1  UNL1       -0.0041
      3 C          59.9447   89.7035    8.8078 C.ar    1  UNL1        0.0057
      4 C          59.8850   89.1612    7.4105 C.ar    1  UNL1        0.0696
      5 C          60.4781   87.8186    7.1012 C.ar    1  UNL1        0.0095
      6 C          61.1309   87.0184    8.1890 C.ar    1  UNL1        0.0677
      7 C          63.8020   84.3598   13.9377 C.2     1  UNL1        0.2251
      8 O          63.6380   82.8693   13.9738 O.2     1  UNL1       -0.2749
      9 N          63.1492   85.1600   12.8498 N.am    1  UNL1       -0.2795
     10 C          63.3132   86.6506   12.8137 C.3     1  UNL1        0.0937
     11 C          62.6604   87.4508   11.7258 C.3     1  UNL1        0.0259
     12 C          61.8435   86.7605   10.6741 C.3     1  UNL1        0.0257
     13 C          61.6795   85.2700   10.7102 C.3     1  UNL1        0.0259
     14 C          62.3323   84.4697   11.7981 C.3     1  UNL1        0.0937
     15 C          66.1026   85.1876   14.8165 C.3     1  UNL1        0.0096
     16 C          64.6189   85.0501   14.9894 C.3     1  UNL1        0.0767
     17 C          63.9521   85.6030   16.2141 C.3     1  UNL1        0.0096
     18 C          59.2321   89.9614    6.3227 C.2     1  UNL1        0.3078
     19 O          60.0704   90.6000    5.2553 O.2     1  UNL1       -0.2516
     20 N          57.7410   90.1230    6.3023 N.am    1  UNL1       -0.1708
     21 H          57.1908   89.7039    7.0029 H       1  UNL1        0.2545
     22 C          57.0882   90.9232    5.2144 C.2     1  UNL1        0.3751
     23 N          55.6010   90.8633    5.0287 N.pl3   1  UNL1       -0.1313
     24 N          57.9226   91.7835    4.3123 N.pl3   1  UNL1       -0.2906
     25 H          55.0533   90.2987    5.6208 H       1  UNL1        0.3060
     26 H          58.8988   91.8228    4.4342 H       1  UNL1        0.2545
     27 H          57.4942   92.3087    3.5983 H       1  UNL1        0.2545
     28 C          61.7241   85.6758    7.8796 C.3     1  UNL1        0.4183
     29 F          62.3172   84.3333    7.5702 F       1  UNL1       -0.1659
     30 F          60.3566   85.1432    7.5690 F       1  UNL1       -0.1659
     31 F          63.0915   86.2084    8.1902 F       1  UNL1       -0.1659
@<TRIPOS>BOND
     1    15    16    1
     2    16    17    1
     3    16     7    1
     4     7     8    2
     5     7     9   am
     6     9    10    1
     7    10    11    1
     8    11    12    1
     9    12     1    1
    10     1     2   ar
    11     2     3   ar
    12     3     4   ar
    13     4    18    1
    14    18    19    2
    15    18    20   am
    16    20    22    1
    17    22    23    2
    18    22    24    1
    19     4     5   ar
    20     5     6   ar
    21     6    28    1
    22    28    29    1
    23    28    30    1
    24    28    31    1
    25    12    13    1
    26    13    14    1
    27    14     9    1
    28     6     1   ar
    29    20    21    1
    30    23    25    1
    31    24    26    1
    32    24    27    1
