@<TRIPOS>MOLECULE
*****
 39 41 0 0 0
SMALL
GASTEIGER

@<TRIPOS>ATOM
      1 N          60.9209   89.3264    8.8999 N.am    1  UNL1       -0.2890
      2 C          61.1045   89.2079   10.3840 C.2     1  UNL1        0.3040
      3 O          60.1993   88.3179   11.1830 O.2     1  UNL1       -0.2526
      4 N          62.1934   89.9794   11.0689 N.am    1  UNL1       -0.2641
      5 C          63.0986   90.8694   10.2698 C.3     1  UNL1        0.0949
      6 C          64.1875   91.6409   10.9547 C.3     1  UNL1        0.0217
      7 C          64.3711   91.5223   12.4388 C.3     1  UNL1        0.0062
      8 C          63.4659   90.6324   13.2378 C.3     1  UNL1        0.0514
      9 C          62.3770   89.8609   12.5529 C.3     1  UNL1        0.0977
     10 H          61.5150   89.9105    8.3755 H       1  UNL1        0.1510
     11 C          59.8320   88.5549    8.2150 C.3     1  UNL1        0.0888
     12 C          58.9087   89.2493    7.2582 C.3     1  UNL1        0.0884
     13 C          58.5514   91.0392    5.4094 C.3     1  UNL1        0.0859
     14 N          59.4674   90.1500    6.1969 N.3     1  UNL1       -0.2949
     15 H          60.1466   90.7582    6.6544 H       1  UNL1        0.1233
     16 C          59.6664   87.0891    8.4868 C.3     1  UNL1        0.0235
     17 C          60.8747   86.2134    8.6393 C.3     1  UNL1        0.0314
     18 C          61.5628   85.6665    7.4238 C.3     1  UNL1        0.0051
     19 C          62.7710   84.7908    7.5763 C.3     1  UNL1        0.0322
     20 C          63.2911   84.4620    8.9443 C.3     1  UNL1        0.1422
     21 O          62.6030   85.0088   10.1597 O.3     1  UNL1       -0.3538
     22 C          61.3948   85.8845   10.0072 C.3     1  UNL1        0.1421
     23 C          63.6496   90.5139   14.7218 C.3     1  UNL1        0.1391
     24 C          63.6273   89.1637   15.3748 C.ar    1  UNL1        0.0054
     25 C          62.9528   88.9838   16.7025 C.ar    1  UNL1       -0.0019
     26 C          62.9305   87.6336   17.3555 C.ar    1  UNL1        0.0006
     27 C          63.5827   86.4633   16.6810 C.ar    1  UNL1        0.0114
     28 C          64.2572   86.6432   15.3533 C.ar    1  UNL1        0.0574
     29 CL         64.9093   85.4729   14.6787 Cl      1  UNL1       -0.0823
     30 C          64.2795   87.9934   14.7002 C.ar    1  UNL1        0.0095
     31 O          63.8556   91.7456   15.5527 O.3     1  UNL1       -0.3500
     32 C          65.1765   91.9873   16.2210 C.3     1  UNL1        0.1638
     33 C          66.3388   92.4982   15.4221 C.3     1  UNL1        0.1247
     34 N          66.1552   93.6577   14.4883 N.am    1  UNL1       -0.2681
     35 C          66.7496   93.6135   13.1118 C.2     1  UNL1        0.4018
     36 O          67.5276   92.4098   12.6691 O.2     1  UNL1       -0.2264
     37 H          65.6446   94.4477   14.7788 H       1  UNL1        0.1528
     38 O          66.5661   94.7730   12.1780 O.3     1  UNL1       -0.4306
     39 C          66.6829   94.5687   10.6966 C.3     1  UNL1        0.2573
@<TRIPOS>BOND
     1    13    14    1
     2    14    12    1
     3    11    12    1
     4    11    16    1
     5    17    16    1
     6    17    18    1
     7    18    19    1
     8    19    20    1
     9    20    21    1
    10    21    22    1
    11    11     1    1
    12     1     2   am
    13     2     3    2
    14     2     4   am
    15     4     5    1
    16     5     6    1
    17     6     7    1
    18     8     7    1
    19     8    23    1
    20    23    31    1
    21    31    32    1
    22    32    33    1
    23    33    34    1
    24    34    35   am
    25    35    36    2
    26    35    38    1
    27    38    39    1
    28    23    24    1
    29    24    25   ar
    30    25    26   ar
    31    26    27   ar
    32    27    28   ar
    33    28    29    1
    34    28    30   ar
    35     8     9    1
    36    22    17    1
    37     9     4    1
    38    30    24   ar
    39    14    15    1
    40     1    10    1
    41    34    37    1
@<TRIPOS>MOLECULE
*****
 39 41 0 0 0
SMALL
GASTEIGER

@<TRIPOS>ATOM
      1 N          61.2051   89.4293    9.1624 N.am    1  UNL1       -0.2890
      2 C          61.5640   89.5234   10.6159 C.2     1  UNL1        0.3040
      3 O          60.8244   88.6973   11.6260 O.2     1  UNL1       -0.2526
      4 N          62.6626   90.4436   11.0590 N.am    1  UNL1       -0.2641
      5 C          63.4022   91.2698   10.0488 C.3     1  UNL1        0.0949
      6 C          64.5008   92.1900   10.4919 C.3     1  UNL1        0.0217
      7 C          64.8597   92.2841   11.9454 C.3     1  UNL1        0.0062
      8 C          64.1201   91.4580   12.9556 C.3     1  UNL1        0.0514
      9 C          63.0215   90.5378   12.5124 C.3     1  UNL1        0.0977
     10 H          61.6906   89.9715    8.4994 H       1  UNL1        0.1510
     11 C          60.1066   88.5091    8.7193 C.3     1  UNL1        0.0888
     12 C          59.1479   88.9454    7.6512 C.3     1  UNL1        0.0884
     13 C          58.6354   90.5482    5.6718 C.3     1  UNL1        0.0859
     14 N          59.6259   89.8087    6.5215 N.3     1  UNL1       -0.2949
     15 H          60.2459   90.5091    6.9281 H       1  UNL1        0.1233
     16 C          59.9666   87.1527    9.3441 C.3     1  UNL1        0.0235
     17 C          61.1348   86.2119    9.3640 C.3     1  UNL1        0.0314
     18 C          61.8278   85.8496    8.0840 C.3     1  UNL1        0.0051
     19 C          62.9960   84.9088    8.1039 C.3     1  UNL1        0.0322
     20 C          63.4711   84.3305    9.4038 C.3     1  UNL1        0.1422
     21 O          62.7781   84.6929   10.6838 O.3     1  UNL1       -0.3538
     22 C          61.6100   85.6336   10.6639 C.3     1  UNL1        0.1421
     23 C          64.4790   91.5521   14.4089 C.3     1  UNL1        0.1391
     24 C          65.8767   91.9158   14.8142 C.ar    1  UNL1        0.0054
     25 C          66.1281   92.5590   16.1458 C.ar    1  UNL1       -0.0019
     26 C          67.5257   92.9226   16.5511 C.ar    1  UNL1        0.0006
     27 C          68.6720   92.6432   15.6249 C.ar    1  UNL1        0.0114
     28 C          68.4206   92.0000   14.2933 C.ar    1  UNL1        0.0574
     29 CL         69.5669   91.7205   13.3671 Cl      1  UNL1       -0.0823
     30 C          67.0230   91.6363   13.8879 C.ar    1  UNL1        0.0095
     31 O          63.4403   91.2825   15.4570 O.3     1  UNL1       -0.3500
     32 C          63.6801   90.2285   16.4969 C.3     1  UNL1        0.1638
     33 C          62.8563   88.9750   16.4981 C.3     1  UNL1        0.1247
     34 N          63.4482   87.6880   16.0046 N.am    1  UNL1       -0.2681
     35 C          63.1170   86.3974   16.6935 C.2     1  UNL1        0.4018
     36 O          62.1939   86.3936   17.8758 O.2     1  UNL1       -0.2264
     37 H          64.0541   87.6905   15.2286 H       1  UNL1        0.1528
     38 O          63.7089   85.1104   16.2000 O.3     1  UNL1       -0.4306
     39 C          64.5029   85.0893   14.9275 C.3     1  UNL1        0.2573
@<TRIPOS>BOND
     1    13    14    1
     2    14    12    1
     3    11    12    1
     4    11    16    1
     5    17    16    1
     6    17    18    1
     7    18    19    1
     8    19    20    1
     9    20    21    1
    10    21    22    1
    11    11     1    1
    12     1     2   am
    13     2     3    2
    14     2     4   am
    15     4     5    1
    16     5     6    1
    17     6     7    1
    18     8     7    1
    19     8    23    1
    20    23    31    1
    21    31    32    1
    22    32    33    1
    23    33    34    1
    24    34    35   am
    25    35    36    2
    26    35    38    1
    27    38    39    1
    28    23    24    1
    29    24    25   ar
    30    25    26   ar
    31    26    27   ar
    32    27    28   ar
    33    28    29    1
    34    28    30   ar
    35     8     9    1
    36    22    17    1
    37     9     4    1
    38    30    24   ar
    39    14    15    1
    40     1    10    1
    41    34    37    1
@<TRIPOS>MOLECULE
*****
 39 41 0 0 0
SMALL
GASTEIGER

@<TRIPOS>ATOM
      1 N          63.2965   91.1921   13.8253 N.am    1  UNL1       -0.2890
      2 C          63.1432   89.9037   13.0725 C.2     1  UNL1        0.3040
      3 O          64.1388   88.7987   13.2664 O.2     1  UNL1       -0.2526
      4 N          61.9942   89.7204   12.1258 N.am    1  UNL1       -0.2641
      5 C          60.9985   90.8254   11.9319 C.3     1  UNL1        0.0949
      6 C          59.8495   90.6421   10.9853 C.3     1  UNL1        0.0217
      7 C          59.6962   89.3537   10.2325 C.3     1  UNL1        0.0062
      8 C          60.6918   88.2488   10.4263 C.3     1  UNL1        0.0514
      9 C          61.8408   88.4321   11.3730 C.3     1  UNL1        0.0977
     10 H          62.6430   91.9173   13.6980 H       1  UNL1        0.1510
     11 C          64.4455   91.3754   14.7720 C.3     1  UNL1        0.0888
     12 C          64.2161   91.3033   16.2526 C.3     1  UNL1        0.0884
     13 C          63.1240   88.9878   16.6945 C.3     1  UNL1        0.0859
     14 N          63.0840   90.4837   16.7972 N.3     1  UNL1       -0.2949
     15 H          63.0081   90.7088   17.7891 H       1  UNL1        0.1233
     16 C          65.8237   91.6309   14.2381 C.3     1  UNL1        0.0235
     17 C          66.0192   92.5701   13.0849 C.3     1  UNL1        0.0314
     18 C          65.8243   92.0832   11.6796 C.3     1  UNL1        0.0051
     19 C          66.0197   93.0224   10.5266 C.3     1  UNL1        0.0322
     20 C          66.4101   94.4486   10.7788 C.3     1  UNL1        0.1422
     21 O          66.6050   94.9356   12.1841 O.3     1  UNL1       -0.3538
     22 C          66.4095   93.9963   13.3371 C.3     1  UNL1        0.1421
     23 C          60.5385   86.9605    9.6735 C.3     1  UNL1        0.1391
     24 C          61.6153   85.9184    9.7430 C.ar    1  UNL1        0.0054
     25 C          62.4403   85.6104    8.5288 C.ar    1  UNL1       -0.0019
     26 C          63.5171   84.5683    8.5984 C.ar    1  UNL1        0.0006
     27 C          63.7687   83.8344    9.8821 C.ar    1  UNL1        0.0114
     28 C          62.9437   84.1425   11.0964 C.ar    1  UNL1        0.0574
     29 CL         63.1954   83.4086   12.3801 Cl      1  UNL1       -0.0823
     30 C          61.8669   85.1845   11.0268 C.ar    1  UNL1        0.0095
     31 O          59.3084   86.7141    8.8512 O.3     1  UNL1       -0.3500
     32 C          59.2782   87.1186    7.4071 C.3     1  UNL1        0.1638
     33 C          59.6167   88.5264    7.0154 C.3     1  UNL1        0.1247
     34 N          58.5621   89.4149    6.4251 N.am    1  UNL1       -0.2681
     35 C          58.9573   90.5827    5.5707 C.2     1  UNL1        0.4018
     36 O          60.4072   90.8621    5.3066 O.2     1  UNL1       -0.2264
     37 H          57.6104   89.2316    6.5984 H       1  UNL1        0.1528
     38 O          57.9027   91.4712    4.9804 O.3     1  UNL1       -0.4306
     39 C          56.4550   91.0959    5.0962 C.3     1  UNL1        0.2573
@<TRIPOS>BOND
     1    13    14    1
     2    14    12    1
     3    11    12    1
     4    11    16    1
     5    17    16    1
     6    17    18    1
     7    18    19    1
     8    19    20    1
     9    20    21    1
    10    21    22    1
    11    11     1    1
    12     1     2   am
    13     2     3    2
    14     2     4   am
    15     4     5    1
    16     5     6    1
    17     6     7    1
    18     8     7    1
    19     8    23    1
    20    23    31    1
    21    31    32    1
    22    32    33    1
    23    33    34    1
    24    34    35   am
    25    35    36    2
    26    35    38    1
    27    38    39    1
    28    23    24    1
    29    24    25   ar
    30    25    26   ar
    31    26    27   ar
    32    27    28   ar
    33    28    29    1
    34    28    30   ar
    35     8     9    1
    36    22    17    1
    37     9     4    1
    38    30    24   ar
    39    14    15    1
    40     1    10    1
    41    34    37    1
@<TRIPOS>MOLECULE
*****
 39 41 0 0 0
SMALL
GASTEIGER

@<TRIPOS>ATOM
      1 N          64.3936   91.8343   13.5871 N.am    1  UNL1       -0.2890
      2 C          64.1519   90.3795   13.3132 C.2     1  UNL1        0.3040
      3 O          64.9451   89.3369   14.0437 O.2     1  UNL1       -0.2526
      4 N          63.1170   89.9673   12.3086 N.am    1  UNL1       -0.2641
      5 C          62.3238   91.0100   11.5781 C.3     1  UNL1        0.0949
      6 C          61.2889   90.5978   10.5735 C.3     1  UNL1        0.0217
      7 C          61.0472   89.1429   10.2996 C.3     1  UNL1        0.0062
      8 C          61.8404   88.1003   11.0301 C.3     1  UNL1        0.0514
      9 C          62.8753   88.5125   12.0346 C.3     1  UNL1        0.0977
     10 H          63.8729   92.5187   13.1077 H       1  UNL1        0.1510
     11 C          65.4285   92.2465   14.5917 C.3     1  UNL1        0.0888
     12 C          65.1545   92.0898   16.0581 C.3     1  UNL1        0.0884
     13 C          63.3578   90.3380   16.7310 C.3     1  UNL1        0.0859
     14 N          63.7684   91.7669   16.5319 N.3     1  UNL1       -0.2949
     15 H          63.6473   92.2359   17.4295 H       1  UNL1        0.1233
     16 C          66.7372   92.8155   14.1298 C.3     1  UNL1        0.0235
     17 C          66.9804   93.0465   12.6677 C.3     1  UNL1        0.0314
     18 C          67.7695   92.0495   11.8720 C.3     1  UNL1        0.0051
     19 C          68.0127   92.2805   10.4100 C.3     1  UNL1        0.0322
     20 C          67.4668   93.5086    9.7438 C.3     1  UNL1        0.1422
     21 O          66.6778   94.5056   10.5395 O.3     1  UNL1       -0.3538
     22 C          66.4346   94.2746   12.0015 C.3     1  UNL1        0.1421
     23 C          61.5988   86.6455   10.7561 C.3     1  UNL1        0.1391
     24 C          61.2997   86.1847    9.3603 C.ar    1  UNL1        0.0054
     25 C          59.9359   86.4022    8.7748 C.ar    1  UNL1       -0.0019
     26 C          59.6368   85.9414    7.3790 C.ar    1  UNL1        0.0006
     27 C          60.7015   85.2633    6.5687 C.ar    1  UNL1        0.0114
     28 C          62.0653   85.0458    7.1542 C.ar    1  UNL1        0.0574
     29 CL         63.1299   84.3677    6.3440 Cl      1  UNL1       -0.0823
     30 C          62.3644   85.5066    8.5500 C.ar    1  UNL1        0.0095
     31 O          61.6562   85.6513   11.8780 O.3     1  UNL1       -0.3500
     32 C          62.8441   84.7462   12.0179 C.3     1  UNL1        0.1638
     33 C          63.1343   84.0878   13.3340 C.3     1  UNL1        0.1247
     34 N          62.3229   84.4420   14.5450 N.am    1  UNL1       -0.2681
     35 C          62.9899   85.0498   15.7431 C.2     1  UNL1        0.4018
     36 O          64.4682   85.3035   15.7305 O.2     1  UNL1       -0.2264
     37 H          61.3526   84.2755   14.5533 H       1  UNL1        0.1528
     38 O          62.1785   85.4040   16.9541 O.3     1  UNL1       -0.4306
     39 C          62.5845   86.5623   17.8164 C.3     1  UNL1        0.2573
@<TRIPOS>BOND
     1    13    14    1
     2    14    12    1
     3    11    12    1
     4    11    16    1
     5    17    16    1
     6    17    18    1
     7    18    19    1
     8    19    20    1
     9    20    21    1
    10    21    22    1
    11    11     1    1
    12     1     2   am
    13     2     3    2
    14     2     4   am
    15     4     5    1
    16     5     6    1
    17     6     7    1
    18     8     7    1
    19     8    23    1
    20    23    31    1
    21    31    32    1
    22    32    33    1
    23    33    34    1
    24    34    35   am
    25    35    36    2
    26    35    38    1
    27    38    39    1
    28    23    24    1
    29    24    25   ar
    30    25    26   ar
    31    26    27   ar
    32    27    28   ar
    33    28    29    1
    34    28    30   ar
    35     8     9    1
    36    22    17    1
    37     9     4    1
    38    30    24   ar
    39    14    15    1
    40     1    10    1
    41    34    37    1
@<TRIPOS>MOLECULE
*****
 39 41 0 0 0
SMALL
GASTEIGER

@<TRIPOS>ATOM
      1 N          60.7698   89.4374    8.6928 N.am    1  UNL1       -0.2890
      2 C          61.1964   89.1257   10.0967 C.2     1  UNL1        0.3040
      3 O          60.5401   88.0062   10.8489 O.2     1  UNL1       -0.2526
      4 N          62.2793   89.9336   10.7484 N.am    1  UNL1       -0.2641
      5 C          62.9356   91.0532    9.9961 C.3     1  UNL1        0.0949
      6 C          64.0185   91.8610   10.6478 C.3     1  UNL1        0.0217
      7 C          64.4451   91.5493   12.0517 C.3     1  UNL1        0.0062
      8 C          63.7888   90.4298   12.8039 C.3     1  UNL1        0.0514
      9 C          62.7059   89.6219   12.1522 C.3     1  UNL1        0.0977
     10 H          61.2006   90.1722    8.1991 H       1  UNL1        0.1510
     11 C          59.6869   88.6295    8.0411 C.3     1  UNL1        0.0888
     12 C          58.7258   89.2877    7.0960 C.3     1  UNL1        0.0884
     13 C          58.2850   91.1766    5.3677 C.3     1  UNL1        0.0859
     14 N          59.2330   90.2355    6.0499 N.3     1  UNL1       -0.2949
     15 H          59.9487   90.8098    6.4951 H       1  UNL1        0.1233
     16 C          59.5651   87.1636    8.3345 C.3     1  UNL1        0.0235
     17 C          60.6434   86.2184    7.8941 C.3     1  UNL1        0.0314
     18 C          61.9380   86.1533    8.6489 C.3     1  UNL1        0.0051
     19 C          63.0163   85.2082    8.2084 C.3     1  UNL1        0.0322
     20 C          62.7999   84.3281    7.0132 C.3     1  UNL1        0.1422
     21 O          61.5053   84.3931    6.2584 O.3     1  UNL1       -0.3538
     22 C          60.4271   85.3383    6.6988 C.3     1  UNL1        0.1421
     23 C          64.2154   90.1182   14.2077 C.3     1  UNL1        0.1391
     24 C          65.1574   91.0376   14.9270 C.ar    1  UNL1        0.0054
     25 C          64.6833   91.8139   16.1196 C.ar    1  UNL1       -0.0019
     26 C          65.6253   92.7333   16.8389 C.ar    1  UNL1        0.0006
     27 C          67.0414   92.8764   16.3654 C.ar    1  UNL1        0.0114
     28 C          67.5156   92.1000   15.1727 C.ar    1  UNL1        0.0574
     29 CL         68.9316   92.2431   14.6993 Cl      1  UNL1       -0.0823
     30 C          66.5735   91.1806   14.4535 C.ar    1  UNL1        0.0095
     31 O          63.6999   88.8870   14.8924 O.3     1  UNL1       -0.3500
     32 C          64.3687   87.5645   14.6610 C.3     1  UNL1        0.1638
     33 C          63.9954   86.3784   15.4998 C.3     1  UNL1        0.1247
     34 N          63.0943   85.3177   14.9402 N.am    1  UNL1       -0.2681
     35 C          63.6633   84.2257   14.0835 C.2     1  UNL1        0.4018
     36 O          65.1332   84.1944   13.7865 O.2     1  UNL1       -0.2264
     37 H          62.1296   85.3382   15.1352 H       1  UNL1        0.1528
     38 O          62.7622   83.1650   13.5239 O.3     1  UNL1       -0.4306
     39 C          62.0778   82.1995   14.4455 C.3     1  UNL1        0.2573
@<TRIPOS>BOND
     1    13    14    1
     2    14    12    1
     3    11    12    1
     4    11    16    1
     5    17    16    1
     6    17    18    1
     7    18    19    1
     8    19    20    1
     9    20    21    1
    10    21    22    1
    11    11     1    1
    12     1     2   am
    13     2     3    2
    14     2     4   am
    15     4     5    1
    16     5     6    1
    17     6     7    1
    18     8     7    1
    19     8    23    1
    20    23    31    1
    21    31    32    1
    22    32    33    1
    23    33    34    1
    24    34    35   am
    25    35    36    2
    26    35    38    1
    27    38    39    1
    28    23    24    1
    29    24    25   ar
    30    25    26   ar
    31    26    27   ar
    32    27    28   ar
    33    28    29    1
    34    28    30   ar
    35     8     9    1
    36    22    17    1
    37     9     4    1
    38    30    24   ar
    39    14    15    1
    40     1    10    1
    41    34    37    1
@<TRIPOS>MOLECULE
*****
 39 41 0 0 0
SMALL
GASTEIGER

@<TRIPOS>ATOM
      1 N          65.1633   90.3888   14.6036 N.am    1  UNL1       -0.2890
      2 C          64.3867   89.6022   13.5895 C.2     1  UNL1        0.3040
      3 O          63.8340   90.2850   12.3738 O.2     1  UNL1       -0.2526
      4 N          64.1630   88.1328   13.7913 N.am    1  UNL1       -0.2641
      5 C          64.7158   87.4499   15.0071 C.3     1  UNL1        0.0949
      6 C          64.4920   85.9805   15.2089 C.3     1  UNL1        0.0217
      7 C          63.7154   85.1939   14.1948 C.3     1  UNL1        0.0062
      8 C          63.1627   85.8768   12.9790 C.3     1  UNL1        0.0514
      9 C          63.3864   87.3462   12.7773 C.3     1  UNL1        0.0977
     10 H          65.5261   89.9406   15.4016 H       1  UNL1        0.1510
     11 C          65.3871   91.8582   14.4019 C.3     1  UNL1        0.0888
     12 C          65.8352   92.7132   15.5500 C.3     1  UNL1        0.0884
     13 C          68.2918   93.5404   15.7249 C.3     1  UNL1        0.0859
     14 N          67.2212   92.5602   16.1029 N.3     1  UNL1       -0.2949
     15 H          67.1380   92.5922   17.1190 H       1  UNL1        0.1233
     16 C          65.1627   92.4726   13.0520 C.3     1  UNL1        0.0235
     17 C          66.2780   92.5083   12.0495 C.3     1  UNL1        0.0314
     18 C          66.0644   93.1545   10.7128 C.3     1  UNL1        0.0051
     19 C          67.1796   93.1901    9.7103 C.3     1  UNL1        0.0322
     20 C          68.5083   92.5795   10.0445 C.3     1  UNL1        0.1422
     21 O          68.7218   91.9332   11.3811 O.3     1  UNL1       -0.3538
     22 C          67.6067   91.8977   12.3836 C.3     1  UNL1        0.1421
     23 C          62.3862   85.0902   11.9650 C.3     1  UNL1        0.1391
     24 C          62.7317   83.6538   11.7051 C.ar    1  UNL1        0.0054
     25 C          63.5592   83.2860   10.5094 C.ar    1  UNL1       -0.0019
     26 C          63.9048   81.8497   10.2495 C.ar    1  UNL1        0.0006
     27 C          63.4228   80.7812   11.1853 C.ar    1  UNL1        0.0114
     28 C          62.5952   81.1490   12.3812 C.ar    1  UNL1        0.0574
     29 CL         62.1132   80.0804   13.3170 Cl      1  UNL1       -0.0823
     30 C          62.2497   82.5853   12.6411 C.ar    1  UNL1        0.0095
     31 O          61.2640   85.7399   11.2108 O.3     1  UNL1       -0.3500
     32 C          61.4314   86.0743    9.7582 C.3     1  UNL1        0.1638
     33 C          62.0780   87.3666    9.3558 C.3     1  UNL1        0.1247
     34 N          61.6701   88.6482   10.0200 N.am    1  UNL1       -0.2681
     35 C          60.4278   89.3613    9.5749 C.2     1  UNL1        0.4018
     36 O          59.5934   88.7928    8.4655 O.2     1  UNL1       -0.2264
     37 H          62.2177   89.0213   10.7481 H       1  UNL1        0.1528
     38 O          60.0198   90.6429   10.2391 O.3     1  UNL1       -0.4306
     39 C          59.2754   90.6091   11.5408 C.3     1  UNL1        0.2573
@<TRIPOS>BOND
     1    13    14    1
     2    14    12    1
     3    11    12    1
     4    11    16    1
     5    17    16    1
     6    17    18    1
     7    18    19    1
     8    19    20    1
     9    20    21    1
    10    21    22    1
    11    11     1    1
    12     1     2   am
    13     2     3    2
    14     2     4   am
    15     4     5    1
    16     5     6    1
    17     6     7    1
    18     8     7    1
    19     8    23    1
    20    23    31    1
    21    31    32    1
    22    32    33    1
    23    33    34    1
    24    34    35   am
    25    35    36    2
    26    35    38    1
    27    38    39    1
    28    23    24    1
    29    24    25   ar
    30    25    26   ar
    31    26    27   ar
    32    27    28   ar
    33    28    29    1
    34    28    30   ar
    35     8     9    1
    36    22    17    1
    37     9     4    1
    38    30    24   ar
    39    14    15    1
    40     1    10    1
    41    34    37    1
@<TRIPOS>MOLECULE
*****
 39 41 0 0 0
SMALL
GASTEIGER

@<TRIPOS>ATOM
      1 N          60.5149   89.3718    8.3942 N.am    1  UNL1       -0.2890
      2 C          60.9170   89.0166    9.7950 C.2     1  UNL1        0.3040
      3 O          60.2502   87.8724   10.4994 O.2     1  UNL1       -0.2526
      4 N          61.9858   89.8056   10.4914 N.am    1  UNL1       -0.2641
      5 C          62.6526   90.9499    9.7869 C.3     1  UNL1        0.0949
      6 C          63.7215   91.7389   10.4833 C.3     1  UNL1        0.0217
      7 C          64.1236   91.3837   11.8841 C.3     1  UNL1        0.0062
      8 C          63.4568   90.2395   12.5885 C.3     1  UNL1        0.0514
      9 C          62.3880   89.4505   11.8921 C.3     1  UNL1        0.0977
     10 H          60.9525   90.1228    7.9319 H       1  UNL1        0.1510
     11 C          59.4460   88.5828    7.6978 C.3     1  UNL1        0.0888
     12 C          59.3886   87.0925    7.8589 C.3     1  UNL1        0.0884
     13 C          61.5798   85.7347    8.1826 C.3     1  UNL1        0.0859
     14 N          60.4807   86.2343    7.2925 N.3     1  UNL1       -0.2949
     15 H          60.0304   85.4120    6.8907 H       1  UNL1        0.1233
     16 C          58.4345   89.2839    6.8404 C.3     1  UNL1        0.0235
     17 C          58.8787   90.3233    5.8542 C.3     1  UNL1        0.0314
     18 C          60.3263   90.4273    5.4751 C.3     1  UNL1        0.0051
     19 C          60.7704   91.4667    4.4890 C.3     1  UNL1        0.0322
     20 C          59.7670   92.4020    3.8820 C.3     1  UNL1        0.1422
     21 O          58.3195   92.2980    4.2611 O.3     1  UNL1       -0.3538
     22 C          57.8753   91.2586    5.2472 C.3     1  UNL1        0.1421
     23 C          63.8590   89.8844   13.9892 C.3     1  UNL1        0.1391
     24 C          64.7455   90.8072   14.7718 C.ar    1  UNL1        0.0054
     25 C          64.2189   91.4924   15.9978 C.ar    1  UNL1       -0.0019
     26 C          65.1054   92.4152   16.7805 C.ar    1  UNL1        0.0006
     27 C          66.5185   92.6528   16.3371 C.ar    1  UNL1        0.0114
     28 C          67.0452   91.9676   15.1110 C.ar    1  UNL1        0.0574
     29 CL         68.4583   92.2052   14.6676 Cl      1  UNL1       -0.0823
     30 C          66.1586   91.0448   14.3284 C.ar    1  UNL1        0.0095
     31 O          63.3746   88.6063   14.6074 O.3     1  UNL1       -0.3500
     32 C          64.3451   87.6878   15.2888 C.3     1  UNL1        0.1638
     33 C          64.7348   86.3931   14.6395 C.3     1  UNL1        0.1247
     34 N          64.3195   85.0901   15.2558 N.am    1  UNL1       -0.2681
     35 C          63.1819   84.3103   14.6662 C.2     1  UNL1        0.4018
     36 O          62.4594   84.8335   13.4602 O.2     1  UNL1       -0.2264
     37 H          64.7937   84.7467   16.0473 H       1  UNL1        0.1528
     38 O          62.7666   83.0073   15.2825 O.3     1  UNL1       -0.4306
     39 C          62.1160   81.9519   14.4382 C.3     1  UNL1        0.2573
@<TRIPOS>BOND
     1    13    14    1
     2    14    12    1
     3    11    12    1
     4    11    16    1
     5    17    16    1
     6    17    18    1
     7    18    19    1
     8    19    20    1
     9    20    21    1
    10    21    22    1
    11    11     1    1
    12     1     2   am
    13     2     3    2
    14     2     4   am
    15     4     5    1
    16     5     6    1
    17     6     7    1
    18     8     7    1
    19     8    23    1
    20    23    31    1
    21    31    32    1
    22    32    33    1
    23    33    34    1
    24    34    35   am
    25    35    36    2
    26    35    38    1
    27    38    39    1
    28    23    24    1
    29    24    25   ar
    30    25    26   ar
    31    26    27   ar
    32    27    28   ar
    33    28    29    1
    34    28    30   ar
    35     8     9    1
    36    22    17    1
    37     9     4    1
    38    30    24   ar
    39    14    15    1
    40     1    10    1
    41    34    37    1
@<TRIPOS>MOLECULE
*****
 39 41 0 0 0
SMALL
GASTEIGER

@<TRIPOS>ATOM
      1 N          65.4319   91.1823   13.9765 N.am    1  UNL1       -0.2890
      2 C          64.5887   90.3532   13.0536 C.2     1  UNL1        0.3040
      3 O          64.0816   90.9408   11.7701 O.2     1  UNL1       -0.2526
      4 N          64.2526   88.9366   13.4144 N.am    1  UNL1       -0.2641
      5 C          64.7597   88.3490   14.6980 C.3     1  UNL1        0.0949
      6 C          64.4236   86.9324   15.0588 C.3     1  UNL1        0.0217
      7 C          63.5804   86.1033   14.1359 C.3     1  UNL1        0.0062
      8 C          63.0733   86.6909   12.8524 C.3     1  UNL1        0.0514
      9 C          63.4094   88.1075   12.4916 C.3     1  UNL1        0.0977
     10 H          65.7647   90.7967   14.8190 H       1  UNL1        0.1510
     11 C          65.7680   92.5990   13.6157 C.3     1  UNL1        0.0888
     12 C          66.5075   93.4661   14.5912 C.3     1  UNL1        0.0884
     13 C          68.6004   92.7428   15.9499 C.3     1  UNL1        0.0859
     14 N          67.9976   93.3500   14.7179 N.3     1  UNL1       -0.2949
     15 H          68.3178   92.7910   13.9272 H       1  UNL1        0.1233
     16 C          65.3646   93.1486   12.2797 C.3     1  UNL1        0.0235
     17 C          66.3874   93.3066   11.1938 C.3     1  UNL1        0.0314
     18 C          67.3272   92.1807   10.8791 C.3     1  UNL1        0.0051
     19 C          68.3500   92.3388    9.7933 C.3     1  UNL1        0.0322
     20 C          68.4329   93.6228    9.0223 C.3     1  UNL1        0.1422
     21 O          67.4931   94.7487    9.3370 O.3     1  UNL1       -0.3538
     22 C          66.4704   94.5906   10.4228 C.3     1  UNL1        0.1421
     23 C          62.2301   85.8618   11.9296 C.3     1  UNL1        0.1391
     24 C          62.7274   84.5291   11.4535 C.ar    1  UNL1        0.0054
     25 C          63.4891   84.4293   10.1652 C.ar    1  UNL1       -0.0019
     26 C          63.9863   83.0966    9.6891 C.ar    1  UNL1        0.0006
     27 C          63.7218   81.8637   10.5013 C.ar    1  UNL1        0.0114
     28 C          62.9601   81.9633   11.7897 C.ar    1  UNL1        0.0574
     29 CL         62.6956   80.7304   12.6019 Cl      1  UNL1       -0.0823
     30 C          62.4628   83.2960   12.2658 C.ar    1  UNL1        0.0095
     31 O          60.8896   86.3654   11.4828 O.3     1  UNL1       -0.3500
     32 C          60.7519   87.7612   10.9512 C.3     1  UNL1        0.1638
     33 C          60.5660   87.9885    9.4802 C.3     1  UNL1        0.1247
     34 N          60.9596   86.9226    8.5009 N.am    1  UNL1       -0.2681
     35 C          59.9068   86.2087    7.7061 C.2     1  UNL1        0.4018
     36 O          58.4604   86.5606    7.8905 O.2     1  UNL1       -0.2264
     37 H          61.9090   86.6917    8.3799 H       1  UNL1        0.1528
     38 O          60.3004   85.1428    6.7267 O.3     1  UNL1       -0.4306
     39 C          61.7282   84.6907    6.6439 C.3     1  UNL1        0.2573
@<TRIPOS>BOND
     1    13    14    1
     2    14    12    1
     3    11    12    1
     4    11    16    1
     5    17    16    1
     6    17    18    1
     7    18    19    1
     8    19    20    1
     9    20    21    1
    10    21    22    1
    11    11     1    1
    12     1     2   am
    13     2     3    2
    14     2     4   am
    15     4     5    1
    16     5     6    1
    17     6     7    1
    18     8     7    1
    19     8    23    1
    20    23    31    1
    21    31    32    1
    22    32    33    1
    23    33    34    1
    24    34    35   am
    25    35    36    2
    26    35    38    1
    27    38    39    1
    28    23    24    1
    29    24    25   ar
    30    25    26   ar
    31    26    27   ar
    32    27    28   ar
    33    28    29    1
    34    28    30   ar
    35     8     9    1
    36    22    17    1
    37     9     4    1
    38    30    24   ar
    39    14    15    1
    40     1    10    1
    41    34    37    1
@<TRIPOS>MOLECULE
*****
 39 41 0 0 0
SMALL
GASTEIGER

@<TRIPOS>ATOM
      1 N          61.1524   87.6832    9.0166 N.am    1  UNL1       -0.2890
      2 C          61.2516   86.9947   10.3456 C.2     1  UNL1        0.3040
      3 O          60.4621   87.5040   11.5149 O.2     1  UNL1       -0.2526
      4 N          62.1403   85.7970   10.5052 N.am    1  UNL1       -0.2641
      5 C          62.9299   85.2877    9.3358 C.3     1  UNL1        0.0949
      6 C          63.8186   84.0899    9.4955 C.3     1  UNL1        0.0217
      7 C          63.9178   83.4014   10.8245 C.3     1  UNL1        0.0062
      8 C          63.1283   83.9107   11.9938 C.3     1  UNL1        0.0514
      9 C          62.2396   85.1085   11.8341 C.3     1  UNL1        0.0977
     10 H          61.6705   87.3490    8.2491 H       1  UNL1        0.1510
     11 C          60.2636   88.8810    8.8569 C.3     1  UNL1        0.0888
     12 C          59.4164   89.0278    7.6278 C.3     1  UNL1        0.0884
     13 C          58.6938   90.6194    5.7057 C.3     1  UNL1        0.0859
     14 N          59.7632   90.0605    6.5967 N.3     1  UNL1       -0.2949
     15 H          60.1723   90.8499    7.0966 H       1  UNL1        0.1233
     16 C          60.2221   89.9319    9.9263 C.3     1  UNL1        0.0235
     17 C          61.4919   90.3798   10.5875 C.3     1  UNL1        0.0314
     18 C          62.5754   91.0221    9.7731 C.3     1  UNL1        0.0051
     19 C          63.8451   91.4699   10.4343 C.3     1  UNL1        0.0322
     20 C          64.0313   91.2755   11.9099 C.3     1  UNL1        0.1422
     21 O          62.9477   90.6331   12.7244 O.3     1  UNL1       -0.3538
     22 C          61.6780   90.1853   12.0632 C.3     1  UNL1        0.1421
     23 C          63.2276   83.2222   13.3227 C.3     1  UNL1        0.1391
     24 C          62.6004   81.8736   13.5174 C.ar    1  UNL1        0.0054
     25 C          63.4236   80.6317   13.3444 C.ar    1  UNL1       -0.0019
     26 C          62.7964   79.2830   13.5391 C.ar    1  UNL1        0.0006
     27 C          61.3462   79.1764   13.9068 C.ar    1  UNL1        0.0114
     28 C          60.5229   80.4183   14.0798 C.ar    1  UNL1        0.0574
     29 CL         59.0726   80.3116   14.4475 Cl      1  UNL1       -0.0823
     30 C          61.1501   81.7670   13.8851 C.ar    1  UNL1        0.0095
     31 O          63.9540   83.8824   14.4570 O.3     1  UNL1       -0.3500
     32 C          63.1957   84.7067   15.4547 C.3     1  UNL1        0.1638
     33 C          63.8917   85.8030   16.2054 C.3     1  UNL1        0.1247
     34 N          63.1728   87.0873   16.4952 N.am    1  UNL1       -0.2681
     35 C          63.5298   88.3335   15.7406 C.2     1  UNL1        0.4018
     36 O          64.6058   88.2955   14.6962 O.2     1  UNL1       -0.2264
     37 H          62.4666   87.1122   17.1807 H       1  UNL1        0.1528
     38 O          62.8108   89.6177   16.0304 O.3     1  UNL1       -0.4306
     39 C          63.5872   90.8896   16.2024 C.3     1  UNL1        0.2573
@<TRIPOS>BOND
     1    13    14    1
     2    14    12    1
     3    11    12    1
     4    11    16    1
     5    17    16    1
     6    17    18    1
     7    18    19    1
     8    19    20    1
     9    20    21    1
    10    21    22    1
    11    11     1    1
    12     1     2   am
    13     2     3    2
    14     2     4   am
    15     4     5    1
    16     5     6    1
    17     6     7    1
    18     8     7    1
    19     8    23    1
    20    23    31    1
    21    31    32    1
    22    32    33    1
    23    33    34    1
    24    34    35   am
    25    35    36    2
    26    35    38    1
    27    38    39    1
    28    23    24    1
    29    24    25   ar
    30    25    26   ar
    31    26    27   ar
    32    27    28   ar
    33    28    29    1
    34    28    30   ar
    35     8     9    1
    36    22    17    1
    37     9     4    1
    38    30    24   ar
    39    14    15    1
    40     1    10    1
    41    34    37    1
