@<TRIPOS>MOLECULE
*****
 31 34 0 0 0
SMALL
GASTEIGER

@<TRIPOS>ATOM
      1 N          62.5461   85.9706   11.2589 N.pl3   1  UNL1       -0.2567
      2 C          62.8579   87.4208   11.4821 C.ar    1  UNL1        0.1408
      3 N          62.4534   88.2560   10.3036 N.ar    1  UNL1       -0.2290
      4 C          62.6787   89.7388   10.3226 C.ar    1  UNL1        0.0969
      5 C          63.3085   90.3864   11.5200 C.ar    1  UNL1        0.0084
      6 C          63.7130   89.5513   12.6985 C.ar    1  UNL1        0.0055
      7 C          63.4877   88.0684   12.6795 C.ar    1  UNL1        0.0853
      8 C          63.9613   87.4258   13.9495 C.2     1  UNL1        0.2523
      9 O          64.5523   88.3551   14.9679 O.2     1  UNL1       -0.2697
     10 N          63.9220   85.9770   14.3358 N.am    1  UNL1       -0.2784
     11 C          63.3994   84.8128   13.5473 C.ar    1  UNL1        0.0791
     12 C          63.5497   83.5266   14.3044 C.ar    1  UNL1       -0.0018
     13 C          64.1620   83.5294   15.6737 C.3     1  UNL1        0.0326
     14 C          63.0875   82.2375   13.6921 C.ar    1  UNL1        0.0467
     15 C          62.4752   82.2347   12.3229 C.ar    1  UNL1        0.2232
     16 F          62.0130   80.9457   11.7106 F       1  UNL1       -0.1832
     17 N          62.3250   83.5209   11.5658 N.ar    1  UNL1       -0.2014
     18 C          62.7871   84.8099   12.1780 C.ar    1  UNL1        0.1521
     19 H          64.2876   85.7617   15.2242 H       1  UNL1        0.1552
     20 C          62.7563   85.5014    8.7122 C.3     1  UNL1        0.0237
     21 C          61.9090   85.6370    9.9426 C.3     1  UNL1        0.0984
     22 C          63.5339   91.8693   11.5389 C.3     1  UNL1        0.0899
     23 S          64.7778   92.4311   12.1609 S.3     1  UNL1       -0.1087
     24 C          65.7862   93.1438   11.3093 C.ar    1  UNL1        0.0279
     25 C          65.8065   94.6430   11.2670 C.ar    1  UNL1        0.0209
     26 C          66.8148   95.3557   10.4154 C.ar    1  UNL1        0.0595
     27 C          66.8352   96.8550   10.3731 C.3     1  UNL1        0.0521
     28 N          67.8029   94.5691    9.6060 N.ar    1  UNL1       -0.2539
     29 C          67.7826   93.0699    9.6482 C.ar    1  UNL1        0.0595
     30 C          68.7706   92.2833    8.8389 C.3     1  UNL1        0.0521
     31 C          66.7743   92.3572   10.4999 C.ar    1  UNL1        0.0209
@<TRIPOS>BOND
     1    20    21    1
     2    21     1    1
     3     1     2    1
     4     2     3   ar
     5     3     4   ar
     6     4     5   ar
     7     5    22    1
     8    22    23    1
     9    23    24    1
    10    24    25   ar
    11    25    26   ar
    12    26    27    1
    13    26    28   ar
    14    28    29   ar
    15    29    30    1
    16    29    31   ar
    17     5     6   ar
    18     6     7   ar
    19     7     8    1
    20     8     9    2
    21     8    10   am
    22    10    11    1
    23    11    12   ar
    24    12    13    1
    25    12    14   ar
    26    14    15   ar
    27    15    16    1
    28    15    17   ar
    29    17    18   ar
    30    18     1    1
    31     7     2   ar
    32    18    11   ar
    33    31    24   ar
    34    10    19    1
@<TRIPOS>MOLECULE
*****
 31 34 0 0 0
SMALL
GASTEIGER

@<TRIPOS>ATOM
      1 N          62.5847   85.6603   11.0552 N.pl3   1  UNL1       -0.2567
      2 C          62.7454   87.1244   11.3392 C.ar    1  UNL1        0.1408
      3 N          62.3059   87.9602   10.1738 N.ar    1  UNL1       -0.2290
      4 C          62.3851   89.4561   10.2516 C.ar    1  UNL1        0.0969
      5 C          62.9038   90.1161   11.4947 C.ar    1  UNL1        0.0084
      6 C          63.3433   89.2802   12.6601 C.ar    1  UNL1        0.0055
      7 C          63.2641   87.7844   12.5823 C.ar    1  UNL1        0.0853
      8 C          63.7501   87.1433   13.8484 C.2     1  UNL1        0.2523
      9 O          64.2095   88.0864   14.9206 O.2     1  UNL1       -0.2697
     10 N          63.8376   85.6840   14.1840 N.am    1  UNL1       -0.2784
     11 C          63.4605   84.5052   13.3364 C.ar    1  UNL1        0.0791
     12 C          63.7067   83.2121   14.0556 C.ar    1  UNL1       -0.0018
     13 C          64.2643   83.2226   15.4480 C.3     1  UNL1        0.0326
     14 C          63.3953   81.9083   13.3822 C.ar    1  UNL1        0.0467
     15 C          62.8378   81.8978   11.9897 C.ar    1  UNL1        0.2232
     16 F          62.5264   80.5941   11.3163 F       1  UNL1       -0.1832
     17 N          62.5916   83.1909   11.2706 N.ar    1  UNL1       -0.2014
     18 C          62.9029   84.4946   11.9439 C.ar    1  UNL1        0.1521
     19 H          64.1888   85.4718   15.0789 H       1  UNL1        0.1552
     20 C          62.9508   85.2179    8.5213 C.3     1  UNL1        0.0237
     21 C          62.0327   85.3164    9.7034 C.3     1  UNL1        0.0984
     22 C          62.9829   91.6120   11.5724 C.3     1  UNL1        0.0899
     23 S          64.0093   92.3516   10.7665 S.3     1  UNL1       -0.1087
     24 C          65.4577   92.2808   11.1501 C.ar    1  UNL1        0.0279
     25 C          66.5188   92.3802   10.0947 C.ar    1  UNL1        0.0209
     26 C          67.9672   92.3094   10.4784 C.ar    1  UNL1        0.0595
     27 C          69.0284   92.4088    9.4229 C.3     1  UNL1        0.0521
     28 N          68.3544   92.1391   11.9175 N.ar    1  UNL1       -0.2539
     29 C          67.2932   92.0397   12.9729 C.ar    1  UNL1        0.0595
     30 C          67.6804   91.8695   14.4121 C.3     1  UNL1        0.0521
     31 C          65.8449   92.1105   12.5893 C.ar    1  UNL1        0.0209
@<TRIPOS>BOND
     1    20    21    1
     2    21     1    1
     3     1     2    1
     4     2     3   ar
     5     3     4   ar
     6     4     5   ar
     7     5    22    1
     8    22    23    1
     9    23    24    1
    10    24    25   ar
    11    25    26   ar
    12    26    27    1
    13    26    28   ar
    14    28    29   ar
    15    29    30    1
    16    29    31   ar
    17     5     6   ar
    18     6     7   ar
    19     7     8    1
    20     8     9    2
    21     8    10   am
    22    10    11    1
    23    11    12   ar
    24    12    13    1
    25    12    14   ar
    26    14    15   ar
    27    15    16    1
    28    15    17   ar
    29    17    18   ar
    30    18     1    1
    31     7     2   ar
    32    18    11   ar
    33    31    24   ar
    34    10    19    1
@<TRIPOS>MOLECULE
*****
 31 34 0 0 0
SMALL
GASTEIGER

@<TRIPOS>ATOM
      1 N          62.4925   88.8901   11.1669 N.pl3   1  UNL1       -0.2567
      2 C          63.2665   89.4954   12.3003 C.ar    1  UNL1        0.1408
      3 N          63.3056   90.9914   12.1999 N.ar    1  UNL1       -0.2290
      4 C          64.0320   91.7940   13.2383 C.ar    1  UNL1        0.0969
      5 C          64.7193   91.1005   14.3770 C.ar    1  UNL1        0.0084
      6 C          64.6801   89.6044   14.4774 C.ar    1  UNL1        0.0055
      7 C          63.9537   88.8018   13.4391 C.ar    1  UNL1        0.0853
      8 C          64.0366   87.3318   13.7256 C.2     1  UNL1        0.2523
      9 O          64.8050   86.9510   14.9563 O.2     1  UNL1       -0.2697
     10 N          63.4528   86.1922   12.9443 N.am    1  UNL1       -0.2784
     11 C          62.6419   86.2412   11.6834 C.ar    1  UNL1        0.0791
     12 C          62.2525   84.8659   11.2284 C.ar    1  UNL1       -0.0018
     13 C          62.6799   83.6653   12.0194 C.3     1  UNL1        0.0326
     14 C          61.4357   84.6913    9.9825 C.ar    1  UNL1        0.0467
     15 C          61.0083   85.8919    9.1915 C.ar    1  UNL1        0.2232
     16 F          60.1915   85.7174    7.9455 F       1  UNL1       -0.1832
     17 N          61.3977   87.2672    9.6464 N.ar    1  UNL1       -0.2014
     18 C          62.2144   87.4419   10.8923 C.ar    1  UNL1        0.1521
     19 H          63.6246   85.2932   13.3071 H       1  UNL1        0.1552
     20 C          60.5015   90.3266   10.3168 C.3     1  UNL1        0.0237
     21 C          61.9208   89.8616   10.1772 C.3     1  UNL1        0.0984
     22 C          65.4457   91.9032   15.4154 C.3     1  UNL1        0.0899
     23 S          66.6143   92.7569   15.0214 S.3     1  UNL1       -0.1087
     24 C          66.7619   93.2173   13.6014 C.ar    1  UNL1        0.0279
     25 C          66.3031   94.5896   13.2063 C.ar    1  UNL1        0.0209
     26 C          66.4507   95.0499   11.7864 C.ar    1  UNL1        0.0595
     27 C          65.9919   96.4224   11.3913 C.3     1  UNL1        0.0521
     28 N          67.0571   94.1379   10.7615 N.ar    1  UNL1       -0.2539
     29 C          67.5159   92.7655   11.1565 C.ar    1  UNL1        0.0595
     30 C          68.1223   91.8535   10.1316 C.3     1  UNL1        0.0521
     31 C          67.3683   92.3052   12.5764 C.ar    1  UNL1        0.0209
@<TRIPOS>BOND
     1    20    21    1
     2    21     1    1
     3     1     2    1
     4     2     3   ar
     5     3     4   ar
     6     4     5   ar
     7     5    22    1
     8    22    23    1
     9    23    24    1
    10    24    25   ar
    11    25    26   ar
    12    26    27    1
    13    26    28   ar
    14    28    29   ar
    15    29    30    1
    16    29    31   ar
    17     5     6   ar
    18     6     7   ar
    19     7     8    1
    20     8     9    2
    21     8    10   am
    22    10    11    1
    23    11    12   ar
    24    12    13    1
    25    12    14   ar
    26    14    15   ar
    27    15    16    1
    28    15    17   ar
    29    17    18   ar
    30    18     1    1
    31     7     2   ar
    32    18    11   ar
    33    31    24   ar
    34    10    19    1
@<TRIPOS>MOLECULE
*****
 31 34 0 0 0
SMALL
GASTEIGER

@<TRIPOS>ATOM
      1 N          63.7633   85.2974   13.7953 N.pl3   1  UNL1       -0.2567
      2 C          63.4668   86.6049   13.1225 C.ar    1  UNL1        0.1408
      3 N          63.7754   87.7658   14.0208 N.ar    1  UNL1       -0.2290
      4 C          63.5490   89.1680   13.5386 C.ar    1  UNL1        0.0969
      5 C          63.0140   89.4093   12.1582 C.ar    1  UNL1        0.0084
      6 C          62.7054   88.2483   11.2599 C.ar    1  UNL1        0.0055
      7 C          62.9318   86.8461   11.7421 C.ar    1  UNL1        0.0853
      8 C          62.5612   85.8395   10.6936 C.2     1  UNL1        0.2523
      9 O          62.0501   86.4040    9.4012 O.2     1  UNL1       -0.2697
     10 N          62.6339   84.3430   10.7665 N.am    1  UNL1       -0.2784
     11 C          63.0953   83.4836   11.9060 C.ar    1  UNL1        0.0791
     12 C          63.0080   82.0259   11.5633 C.ar    1  UNL1       -0.0018
     13 C          62.5054   81.6012   10.2154 C.3     1  UNL1        0.0326
     14 C          63.4233   80.9929   12.5686 C.ar    1  UNL1        0.0467
     15 C          63.9259   81.4176   13.9165 C.ar    1  UNL1        0.2232
     16 F          64.3413   80.3847   14.9217 F       1  UNL1       -0.1832
     17 N          64.0133   82.8753   14.2592 N.ar    1  UNL1       -0.2014
     18 C          63.5980   83.9083   13.2540 C.ar    1  UNL1        0.1521
     19 H          62.3399   83.8612    9.9598 H       1  UNL1        0.1552
     20 C          63.3515   85.5822   16.3447 C.3     1  UNL1        0.0237
     21 C          64.2954   85.3915   15.1946 C.3     1  UNL1        0.0984
     22 C          62.7876   90.8116   11.6760 C.3     1  UNL1        0.0899
     23 S          63.7873   91.4626   10.7667 S.3     1  UNL1       -0.1087
     24 C          64.8018   92.4151   11.3268 C.ar    1  UNL1        0.0279
     25 C          65.3506   93.5162   10.4687 C.ar    1  UNL1        0.0209
     26 C          66.3651   94.4686   11.0288 C.ar    1  UNL1        0.0595
     27 C          66.9140   95.5698   10.1707 C.3     1  UNL1        0.0521
     28 N          66.8307   94.3200   12.4469 N.ar    1  UNL1       -0.2539
     29 C          66.2819   93.2189   13.3050 C.ar    1  UNL1        0.0595
     30 C          66.7475   93.0702   14.7231 C.3     1  UNL1        0.0521
     31 C          65.2674   92.2664   12.7449 C.ar    1  UNL1        0.0209
@<TRIPOS>BOND
     1    20    21    1
     2    21     1    1
     3     1     2    1
     4     2     3   ar
     5     3     4   ar
     6     4     5   ar
     7     5    22    1
     8    22    23    1
     9    23    24    1
    10    24    25   ar
    11    25    26   ar
    12    26    27    1
    13    26    28   ar
    14    28    29   ar
    15    29    30    1
    16    29    31   ar
    17     5     6   ar
    18     6     7   ar
    19     7     8    1
    20     8     9    2
    21     8    10   am
    22    10    11    1
    23    11    12   ar
    24    12    13    1
    25    12    14   ar
    26    14    15   ar
    27    15    16    1
    28    15    17   ar
    29    17    18   ar
    30    18     1    1
    31     7     2   ar
    32    18    11   ar
    33    31    24   ar
    34    10    19    1
@<TRIPOS>MOLECULE
*****
 31 34 0 0 0
SMALL
GASTEIGER

@<TRIPOS>ATOM
      1 N          62.5691   85.2926   10.8306 N.pl3   1  UNL1       -0.2567
      2 C          62.6932   86.7709   11.0526 C.ar    1  UNL1        0.1408
      3 N          62.2756   87.5445    9.8373 N.ar    1  UNL1       -0.2290
      4 C          62.3243   89.0437    9.8492 C.ar    1  UNL1        0.0969
      5 C          62.7906   89.7692   11.0765 C.ar    1  UNL1        0.0084
      6 C          63.2081   88.9955   12.2919 C.ar    1  UNL1        0.0055
      7 C          63.1595   87.4964   12.2799 C.ar    1  UNL1        0.0853
      8 C          63.6167   86.9228   13.5883 C.2     1  UNL1        0.2523
      9 O          64.0239   87.9221   14.6302 O.2     1  UNL1       -0.2697
     10 N          63.7206   85.4820   13.9926 N.am    1  UNL1       -0.2784
     11 C          63.3930   84.2590   13.1883 C.ar    1  UNL1        0.0791
     12 C          63.6402   83.0047   13.9728 C.ar    1  UNL1       -0.0018
     13 C          64.1527   83.0890   15.3800 C.3     1  UNL1        0.0326
     14 C          63.3749   81.6660   13.3502 C.ar    1  UNL1        0.0467
     15 C          62.8625   81.5817   11.9430 C.ar    1  UNL1        0.2232
     16 F          62.5972   80.2432   11.3203 F       1  UNL1       -0.1832
     17 N          62.6152   82.8361   11.1584 N.ar    1  UNL1       -0.2014
     18 C          62.8805   84.1747   11.7810 C.ar    1  UNL1        0.1521
     19 H          64.0470   85.3174   14.9067 H       1  UNL1        0.1552
     20 C          62.9898   84.9003    8.2970 C.3     1  UNL1        0.0237
     21 C          62.0671   84.8773    9.4795 C.3     1  UNL1        0.0984
     22 C          62.8392   91.2684   11.0884 C.3     1  UNL1        0.0899
     23 S          64.1418   91.9747   11.3214 S.3     1  UNL1       -0.1087
     24 C          64.8134   91.8874   12.6599 C.ar    1  UNL1        0.0279
     25 C          64.0175   91.5151   13.8755 C.ar    1  UNL1        0.0209
     26 C          64.6891   91.4279   15.2139 C.ar    1  UNL1        0.0595
     27 C          63.8931   91.0556   16.4296 C.3     1  UNL1        0.0521
     28 N          66.1566   91.7129   15.3366 N.ar    1  UNL1       -0.2539
     29 C          66.9526   92.0852   14.1210 C.ar    1  UNL1        0.0595
     30 C          68.4201   92.3702   14.2437 C.3     1  UNL1        0.0521
     31 C          66.2810   92.1724   12.7826 C.ar    1  UNL1        0.0209
@<TRIPOS>BOND
     1    20    21    1
     2    21     1    1
     3     1     2    1
     4     2     3   ar
     5     3     4   ar
     6     4     5   ar
     7     5    22    1
     8    22    23    1
     9    23    24    1
    10    24    25   ar
    11    25    26   ar
    12    26    27    1
    13    26    28   ar
    14    28    29   ar
    15    29    30    1
    16    29    31   ar
    17     5     6   ar
    18     6     7   ar
    19     7     8    1
    20     8     9    2
    21     8    10   am
    22    10    11    1
    23    11    12   ar
    24    12    13    1
    25    12    14   ar
    26    14    15   ar
    27    15    16    1
    28    15    17   ar
    29    17    18   ar
    30    18     1    1
    31     7     2   ar
    32    18    11   ar
    33    31    24   ar
    34    10    19    1
@<TRIPOS>MOLECULE
*****
 31 34 0 0 0
SMALL
GASTEIGER

@<TRIPOS>ATOM
      1 N          62.7874   84.8716   11.1117 N.pl3   1  UNL1       -0.2567
      2 C          63.0043   86.1278   11.9023 C.ar    1  UNL1        0.1408
      3 N          62.6455   87.3463   11.1046 N.ar    1  UNL1       -0.2290
      4 C          62.7898   88.7099   11.7124 C.ar    1  UNL1        0.0969
      5 C          63.2929   88.8551   13.1181 C.ar    1  UNL1        0.0084
      6 C          63.6518   87.6366   13.9158 C.ar    1  UNL1        0.0055
      7 C          63.5074   86.2729   13.3080 C.ar    1  UNL1        0.0853
      8 C          63.9180   85.1978   14.2700 C.2     1  UNL1        0.2523
      9 O          64.3810   85.6711   15.6160 O.2     1  UNL1       -0.2697
     10 N          63.9268   83.7120   14.0642 N.am    1  UNL1       -0.2784
     11 C          63.5272   82.9344   12.8453 C.ar    1  UNL1        0.0791
     12 C          63.6883   81.4586   13.0597 C.ar    1  UNL1       -0.0018
     13 C          64.1953   80.9425   14.3737 C.3     1  UNL1        0.0326
     14 C          63.3423   80.4988   11.9601 C.ar    1  UNL1        0.0467
     15 C          62.8353   81.0148   10.6461 C.ar    1  UNL1        0.2232
     16 F          62.4893   80.0551    9.5465 F       1  UNL1       -0.1832
     17 N          62.6742   82.4906   10.4317 N.ar    1  UNL1       -0.2014
     18 C          63.0201   83.4504   11.5313 C.ar    1  UNL1        0.1521
     19 H          64.2357   83.1764   14.8304 H       1  UNL1        0.1552
     20 C          63.2282   85.2742    8.5831 C.3     1  UNL1        0.0237
     21 C          62.2693   85.0619    9.7169 C.3     1  UNL1        0.0984
     22 C          63.4373   90.2189   13.7259 C.3     1  UNL1        0.0899
     23 S          64.6089   90.5254   14.6109 S.3     1  UNL1       -0.1087
     24 C          65.5056   91.6852   14.2932 C.ar    1  UNL1        0.0279
     25 C          66.5325   92.1343   15.2901 C.ar    1  UNL1        0.0209
     26 C          67.4292   93.2940   14.9724 C.ar    1  UNL1        0.0595
     27 C          68.4562   93.7431   15.9693 C.3     1  UNL1        0.0521
     28 N          67.2989   94.0047   13.6579 N.ar    1  UNL1       -0.2539
     29 C          66.2720   93.5557   12.6611 C.ar    1  UNL1        0.0595
     30 C          66.1417   94.2664   11.3465 C.3     1  UNL1        0.0521
     31 C          65.3753   92.3959   12.9787 C.ar    1  UNL1        0.0209
@<TRIPOS>BOND
     1    20    21    1
     2    21     1    1
     3     1     2    1
     4     2     3   ar
     5     3     4   ar
     6     4     5   ar
     7     5    22    1
     8    22    23    1
     9    23    24    1
    10    24    25   ar
    11    25    26   ar
    12    26    27    1
    13    26    28   ar
    14    28    29   ar
    15    29    30    1
    16    29    31   ar
    17     5     6   ar
    18     6     7   ar
    19     7     8    1
    20     8     9    2
    21     8    10   am
    22    10    11    1
    23    11    12   ar
    24    12    13    1
    25    12    14   ar
    26    14    15   ar
    27    15    16    1
    28    15    17   ar
    29    17    18   ar
    30    18     1    1
    31     7     2   ar
    32    18    11   ar
    33    31    24   ar
    34    10    19    1
@<TRIPOS>MOLECULE
*****
 31 34 0 0 0
SMALL
GASTEIGER

@<TRIPOS>ATOM
      1 N          61.7603   89.1438   10.5691 N.pl3   1  UNL1       -0.2567
      2 C          62.4305   88.2745   11.5914 C.ar    1  UNL1        0.1408
      3 N          63.1603   89.0940   12.6140 N.ar    1  UNL1       -0.2290
      4 C          63.9006   88.4164   13.7288 C.ar    1  UNL1        0.0969
      5 C          63.9112   86.9193   13.8209 C.ar    1  UNL1        0.0084
      6 C          63.1814   86.0998   12.7984 C.ar    1  UNL1        0.0055
      7 C          62.4410   86.7773   11.6836 C.ar    1  UNL1        0.0853
      8 C          61.7840   85.7798   10.7762 C.2     1  UNL1        0.2523
      9 O          61.9832   84.3385   11.1407 O.2     1  UNL1       -0.2697
     10 N          60.9541   86.0330    9.5526 N.am    1  UNL1       -0.2784
     11 C          60.5763   87.3463    8.9342 C.ar    1  UNL1        0.0791
     12 C          59.7307   87.1527    7.7105 C.ar    1  UNL1       -0.0018
     13 C          59.3720   85.7683    7.2581 C.3     1  UNL1        0.0326
     14 C          59.2438   88.3436    6.9391 C.ar    1  UNL1        0.0467
     15 C          59.6026   89.7279    7.3915 C.ar    1  UNL1        0.2232
     16 F          59.1158   90.9188    6.6202 F       1  UNL1       -0.1832
     17 N          60.4482   89.9216    8.6152 N.ar    1  UNL1       -0.2014
     18 C          60.9351   88.7308    9.3865 C.ar    1  UNL1        0.1521
     19 H          60.6122   85.2312    9.0949 H       1  UNL1        0.1552
     20 C          63.1541   91.3052   10.2008 C.3     1  UNL1        0.0237
     21 C          61.9388   90.6216   10.7539 C.3     1  UNL1        0.0984
     22 C          64.6516   86.2417   14.9358 C.3     1  UNL1        0.0899
     23 S          64.1587   84.9322   15.4764 S.3     1  UNL1       -0.1087
     24 C          63.7516   83.8377   14.5349 C.ar    1  UNL1        0.0279
     25 C          62.5872   82.9538   14.8710 C.ar    1  UNL1        0.0209
     26 C          62.1802   81.8593   13.9296 C.ar    1  UNL1        0.0595
     27 C          61.0158   80.9754   14.2657 C.3     1  UNL1        0.0521
     28 N          62.9375   81.6487   12.6521 N.ar    1  UNL1       -0.2539
     29 C          64.1018   82.5325   12.3159 C.ar    1  UNL1        0.0595
     30 C          64.8591   82.3219   11.0384 C.3     1  UNL1        0.0521
     31 C          64.5089   83.6270   13.2574 C.ar    1  UNL1        0.0209
@<TRIPOS>BOND
     1    20    21    1
     2    21     1    1
     3     1     2    1
     4     2     3   ar
     5     3     4   ar
     6     4     5   ar
     7     5    22    1
     8    22    23    1
     9    23    24    1
    10    24    25   ar
    11    25    26   ar
    12    26    27    1
    13    26    28   ar
    14    28    29   ar
    15    29    30    1
    16    29    31   ar
    17     5     6   ar
    18     6     7   ar
    19     7     8    1
    20     8     9    2
    21     8    10   am
    22    10    11    1
    23    11    12   ar
    24    12    13    1
    25    12    14   ar
    26    14    15   ar
    27    15    16    1
    28    15    17   ar
    29    17    18   ar
    30    18     1    1
    31     7     2   ar
    32    18    11   ar
    33    31    24   ar
    34    10    19    1
@<TRIPOS>MOLECULE
*****
 31 34 0 0 0
SMALL
GASTEIGER

@<TRIPOS>ATOM
      1 N          63.9585   90.3022   13.6056 N.pl3   1  UNL1       -0.2567
      2 C          63.0718   89.9954   12.4353 C.ar    1  UNL1        0.1408
      3 N          62.1921   88.8118   12.7097 N.ar    1  UNL1       -0.2290
      4 C          61.2264   88.3369   11.6648 C.ar    1  UNL1        0.0969
      5 C          61.1404   89.0455   10.3455 C.ar    1  UNL1        0.0084
      6 C          62.0201   90.2290   10.0711 C.ar    1  UNL1        0.0055
      7 C          62.9858   90.7039   11.1160 C.ar    1  UNL1        0.0853
      8 C          63.7653   91.8944   10.6413 C.2     1  UNL1        0.2523
      9 O          63.4443   92.3721    9.2561 O.2     1  UNL1       -0.2697
     10 N          64.8232   92.6703   11.3685 N.am    1  UNL1       -0.2784
     11 C          65.3629   92.4473   12.7501 C.ar    1  UNL1        0.0791
     12 C          66.4190   93.4551   13.0951 C.ar    1  UNL1       -0.0018
     13 C          66.8038   94.5089   12.0995 C.3     1  UNL1        0.0326
     14 C          67.0903   93.4090   14.4358 C.ar    1  UNL1        0.0467
     15 C          66.7054   92.3552   15.4314 C.ar    1  UNL1        0.2232
     16 F          67.3766   92.3091   16.7720 F       1  UNL1       -0.1832
     17 N          65.6494   91.3474   15.0864 N.ar    1  UNL1       -0.2014
     18 C          64.9781   91.3934   13.7458 C.ar    1  UNL1        0.1521
     19 H          65.2150   93.4257   10.8735 H       1  UNL1        0.1552
     20 C          64.4080   88.0249   14.7726 C.3     1  UNL1        0.0237
     21 C          63.8052   89.3983   14.7929 C.3     1  UNL1        0.0984
     22 C          60.1746   88.5705    9.3006 C.3     1  UNL1        0.0899
     23 S          59.8539   87.1098    9.1844 S.3     1  UNL1       -0.1087
     24 C          60.9041   86.1462    8.7167 C.ar    1  UNL1        0.0279
     25 C          61.9094   85.6028    9.6882 C.ar    1  UNL1        0.0209
     26 C          62.9596   84.6393    9.2205 C.ar    1  UNL1        0.0595
     27 C          63.9650   84.0958   10.1921 C.3     1  UNL1        0.0521
     28 N          63.0043   84.2192    7.7812 N.ar    1  UNL1       -0.2539
     29 C          61.9990   84.7626    6.8097 C.ar    1  UNL1        0.0595
     30 C          62.0438   84.3425    5.3704 C.3     1  UNL1        0.0521
     31 C          60.9489   85.7261    7.2774 C.ar    1  UNL1        0.0209
@<TRIPOS>BOND
     1    20    21    1
     2    21     1    1
     3     1     2    1
     4     2     3   ar
     5     3     4   ar
     6     4     5   ar
     7     5    22    1
     8    22    23    1
     9    23    24    1
    10    24    25   ar
    11    25    26   ar
    12    26    27    1
    13    26    28   ar
    14    28    29   ar
    15    29    30    1
    16    29    31   ar
    17     5     6   ar
    18     6     7   ar
    19     7     8    1
    20     8     9    2
    21     8    10   am
    22    10    11    1
    23    11    12   ar
    24    12    13    1
    25    12    14   ar
    26    14    15   ar
    27    15    16    1
    28    15    17   ar
    29    17    18   ar
    30    18     1    1
    31     7     2   ar
    32    18    11   ar
    33    31    24   ar
    34    10    19    1
@<TRIPOS>MOLECULE
*****
 31 34 0 0 0
SMALL
GASTEIGER

@<TRIPOS>ATOM
      1 N          61.8553   88.0790   10.9096 N.pl3   1  UNL1       -0.2567
      2 C          61.1039   88.3162    9.6332 C.ar    1  UNL1        0.1408
      3 N          60.7168   89.7577    9.4849 N.ar    1  UNL1       -0.2290
      4 C          59.9558   90.2091    8.2737 C.ar    1  UNL1        0.0969
      5 C          59.5819   89.2190    7.2107 C.ar    1  UNL1        0.0084
      6 C          59.9691   87.7774    7.3590 C.ar    1  UNL1        0.0055
      7 C          60.7301   87.3260    8.5702 C.ar    1  UNL1        0.0853
      8 C          61.0153   85.8542    8.5212 C.2     1  UNL1        0.2523
      9 O          60.5033   85.1321    7.3103 O.2     1  UNL1       -0.2697
     10 N          61.7447   85.0089    9.5229 N.am    1  UNL1       -0.2784
     11 C          62.3692   85.4269   10.8212 C.ar    1  UNL1        0.0791
     12 C          63.0023   84.2630   11.5245 C.ar    1  UNL1       -0.0018
     13 C          62.9531   82.8968   10.9074 C.3     1  UNL1        0.0326
     14 C          63.6846   84.4655   12.8449 C.ar    1  UNL1        0.0467
     15 C          63.7338   85.8317   13.4620 C.ar    1  UNL1        0.2232
     16 F          64.4161   86.0342   14.7824 F       1  UNL1       -0.1832
     17 N          63.1007   86.9956   12.7587 N.ar    1  UNL1       -0.2014
     18 C          62.4184   86.7932   11.4383 C.ar    1  UNL1        0.1521
     19 H          61.8242   84.0536    9.2987 H       1  UNL1        0.1552
     20 C          63.1971   90.2326   11.4681 C.3     1  UNL1        0.0237
     21 C          62.0723   89.2875   11.7712 C.3     1  UNL1        0.0984
     22 C          58.8209   89.6704    5.9995 C.3     1  UNL1        0.0899
     23 S          58.8361   91.1161    5.5999 S.3     1  UNL1       -0.1087
     24 C          59.8137   91.5993    4.5699 C.ar    1  UNL1        0.0279
     25 C          61.1784   90.9828    4.4836 C.ar    1  UNL1        0.0209
     26 C          62.1559   91.4660    3.4536 C.ar    1  UNL1        0.0595
     27 C          63.5206   90.8494    3.3673 C.3     1  UNL1        0.0521
     28 N          61.7687   92.5658    2.5099 N.ar    1  UNL1       -0.2539
     29 C          60.4041   93.1823    2.5962 C.ar    1  UNL1        0.0595
     30 C          60.0169   94.2821    1.6525 C.3     1  UNL1        0.0521
     31 C          59.4266   92.6991    3.6262 C.ar    1  UNL1        0.0209
@<TRIPOS>BOND
     1    20    21    1
     2    21     1    1
     3     1     2    1
     4     2     3   ar
     5     3     4   ar
     6     4     5   ar
     7     5    22    1
     8    22    23    1
     9    23    24    1
    10    24    25   ar
    11    25    26   ar
    12    26    27    1
    13    26    28   ar
    14    28    29   ar
    15    29    30    1
    16    29    31   ar
    17     5     6   ar
    18     6     7   ar
    19     7     8    1
    20     8     9    2
    21     8    10   am
    22    10    11    1
    23    11    12   ar
    24    12    13    1
    25    12    14   ar
    26    14    15   ar
    27    15    16    1
    28    15    17   ar
    29    17    18   ar
    30    18     1    1
    31     7     2   ar
    32    18    11   ar
    33    31    24   ar
    34    10    19    1
