@<TRIPOS>MOLECULE
*****
 33 37 0 0 0
SMALL
GASTEIGER

@<TRIPOS>ATOM
      1 C          64.7756   88.0976   14.7355 C.3     1  UNL1        0.0328
      2 C          64.0160   88.7441   13.6152 C.ar    1  UNL1        0.0002
      3 C          64.0595   90.2333   13.4409 C.ar    1  UNL1        0.0774
      4 N          63.3000   90.8799   12.3206 N.ar    1  UNL1       -0.2457
      5 C          62.4970   90.0372   11.3745 C.ar    1  UNL1        0.0814
      6 C          61.7375   90.6837   10.2542 C.ar    1  UNL1        0.0196
      7 C          60.9344   89.8411    9.3082 C.ar    1  UNL1        0.0082
      8 C          60.8909   88.3519    9.4825 C.ar    1  UNL1        0.0347
      9 BR         60.0878   87.5092    8.5363 Br      1  UNL1       -0.0490
     10 C          61.6504   87.7053   10.6027 C.ar    1  UNL1        0.0083
     11 C          62.4534   88.5480   11.5488 C.ar    1  UNL1        0.0222
     12 C          63.2130   87.9015   12.6691 C.ar    1  UNL1        0.0523
     13 C          64.8626   91.0760   14.3870 C.ar    1  UNL1        0.0173
     14 C          64.2860   91.4703   15.7144 C.ar    1  UNL1        0.0015
     15 C          65.0891   92.3129   16.6604 C.ar    1  UNL1        0.0000
     16 C          66.4687   92.7613   16.2791 C.ar    1  UNL1        0.0000
     17 C          67.0454   92.3670   14.9517 C.ar    1  UNL1        0.0000
     18 C          66.2423   91.5244   14.0056 C.ar    1  UNL1        0.0015
     19 C          63.1695   86.4123   12.8434 C.2     1  UNL1        0.2455
     20 O          63.3811   85.8094   14.2005 O.2     1  UNL1       -0.2702
     21 N          62.9143   85.5259   11.6605 N.am    1  UNL1       -0.3040
     22 H          62.7754   85.9215   10.7697 H       1  UNL1        0.1496
     23 C          62.8708   84.0367   11.8347 C.3     1  UNL1        0.0570
     24 C          62.1738   83.4405   13.0217 C.3     1  UNL1        0.0184
     25 C          62.1303   81.9513   13.1960 C.3     1  UNL1        0.0068
     26 C          62.7838   81.0582   12.1832 C.3     1  UNL1        0.0322
     27 C          63.4807   81.6544   10.9964 C.3     1  UNL1        0.0068
     28 C          63.5242   83.1436   10.8221 C.3     1  UNL1        0.0184
     29 C          62.8338   81.8684   12.0451 C.3     1  UNL1        0.0068
     30 C          62.8731   83.2150   11.8875 C.3     1  UNL1        0.0184
     31 C          62.7402   79.5690   12.3575 C.2     1  UNL1        0.0496
     32 O          62.6231   78.6766   11.1576 O.co2   1  UNL1       -0.5492
     33 O          62.8139   78.9723   13.7318 O.co2   1  UNL1       -0.5492
@<TRIPOS>UNITY_ATOM_ATTR
32 1
charge -1
@<TRIPOS>BOND
     1     1     2    1
     2     2     3   ar
     3     3    13    1
     4    13    14   ar
     5    14    15   ar
     6    15    16   ar
     7    16    17   ar
     8    17    18   ar
     9     3     4   ar
    10     4     5   ar
    11     5     6   ar
    12     6     7   ar
    13     7     8   ar
    14     8     9    1
    15     8    10   ar
    16    10    11   ar
    17    11    12   ar
    18    12    19    1
    19    19    20    2
    20    19    21   am
    21    21    23    1
    22    23    24    1
    23    24    25    1
    24    25    26    1
    25    26    31    1
    26    31    32   ar
    27    31    33   ar
    28    26    27    1
    29    27    28    1
    30    26    29    1
    31    29    30    1
    32    12     2   ar
    33    28    23    1
    34    18    13   ar
    35    11     5   ar
    36    30    23    1
    37    21    22    1
@<TRIPOS>MOLECULE
*****
 33 37 0 0 0
SMALL
GASTEIGER

@<TRIPOS>ATOM
      1 C          61.7240   84.2373   10.5645 C.3     1  UNL1        0.0328
      2 C          62.3978   84.9679   11.6881 C.ar    1  UNL1        0.0002
      3 C          62.8918   84.2110   12.8852 C.ar    1  UNL1        0.0774
      4 N          63.5656   84.9415   14.0087 N.ar    1  UNL1       -0.2457
      5 C          63.7453   86.4289   13.9352 C.ar    1  UNL1        0.0814
      6 C          64.4191   87.1594   15.0587 C.ar    1  UNL1        0.0196
      7 C          64.5988   88.6468   14.9852 C.ar    1  UNL1        0.0082
      8 C          64.1048   89.4036   13.7880 C.ar    1  UNL1        0.0347
      9 BR         64.2846   90.8910   13.7145 Br      1  UNL1       -0.0490
     10 C          63.4310   88.6731   12.6645 C.ar    1  UNL1        0.0083
     11 C          63.2513   87.1858   12.7381 C.ar    1  UNL1        0.0222
     12 C          62.5775   86.4552   11.6145 C.ar    1  UNL1        0.0523
     13 C          62.7120   82.7236   12.9588 C.ar    1  UNL1        0.0173
     14 C          63.2499   81.8482   11.8659 C.ar    1  UNL1        0.0015
     15 C          63.0701   80.3609   11.9395 C.ar    1  UNL1        0.0000
     16 C          62.3525   79.7489   13.1059 C.ar    1  UNL1        0.0000
     17 C          61.8146   80.6243   14.1988 C.ar    1  UNL1        0.0000
     18 C          61.9944   82.1117   14.1252 C.ar    1  UNL1        0.0015
     19 C          62.0835   87.2121   10.4174 C.2     1  UNL1        0.2455
     20 O          63.0564   87.7042    9.3873 O.2     1  UNL1       -0.2702
     21 N          60.6165   87.4767   10.2504 N.am    1  UNL1       -0.3040
     22 H          59.9779   87.1537   10.9265 H       1  UNL1        0.1496
     23 C          60.1224   88.2336    9.0532 C.3     1  UNL1        0.0570
     24 C          60.2731   89.7249    8.9942 C.3     1  UNL1        0.0184
     25 C          59.7790   90.4818    7.7970 C.3     1  UNL1        0.0068
     26 C          59.1344   89.7473    6.6590 C.3     1  UNL1        0.0322
     27 C          58.9838   88.2561    6.7181 C.3     1  UNL1        0.0068
     28 C          59.4778   87.4992    7.9152 C.3     1  UNL1        0.0184
     29 C          59.3896   89.2895    7.2939 C.3     1  UNL1        0.0068
     30 C          59.8364   88.6051    8.3764 C.3     1  UNL1        0.0184
     31 C          58.6404   90.5042    5.4618 C.2     1  UNL1        0.0496
     32 O          59.6188   91.0639    4.4722 O.co2   1  UNL1       -0.5492
     33 O          57.1679   90.7013    5.2544 O.co2   1  UNL1       -0.5492
@<TRIPOS>UNITY_ATOM_ATTR
32 1
charge -1
@<TRIPOS>BOND
     1     1     2    1
     2     2     3   ar
     3     3    13    1
     4    13    14   ar
     5    14    15   ar
     6    15    16   ar
     7    16    17   ar
     8    17    18   ar
     9     3     4   ar
    10     4     5   ar
    11     5     6   ar
    12     6     7   ar
    13     7     8   ar
    14     8     9    1
    15     8    10   ar
    16    10    11   ar
    17    11    12   ar
    18    12    19    1
    19    19    20    2
    20    19    21   am
    21    21    23    1
    22    23    24    1
    23    24    25    1
    24    25    26    1
    25    26    31    1
    26    31    32   ar
    27    31    33   ar
    28    26    27    1
    29    27    28    1
    30    26    29    1
    31    29    30    1
    32    12     2   ar
    33    28    23    1
    34    18    13   ar
    35    11     5   ar
    36    30    23    1
    37    21    22    1
@<TRIPOS>MOLECULE
*****
 33 37 0 0 0
SMALL
GASTEIGER

@<TRIPOS>ATOM
      1 C          63.7701   87.9181   13.0319 C.3     1  UNL1        0.0328
      2 C          62.7908   87.5503   11.9568 C.ar    1  UNL1        0.0002
      3 C          62.2851   86.1419   11.8527 C.ar    1  UNL1        0.0774
      4 N          61.3059   85.7741   10.7777 N.ar    1  UNL1       -0.2457
      5 C          60.8323   86.8147    9.8065 C.ar    1  UNL1        0.0814
      6 C          59.8531   86.4468    8.7315 C.ar    1  UNL1        0.0196
      7 C          59.3796   87.4874    7.7604 C.ar    1  UNL1        0.0082
      8 C          59.8853   88.8957    7.8644 C.ar    1  UNL1        0.0347
      9 BR         59.4117   89.9363    6.8933 Br      1  UNL1       -0.0490
     10 C          60.8645   89.2636    8.9395 C.ar    1  UNL1        0.0083
     11 C          61.3380   88.2230    9.9105 C.ar    1  UNL1        0.0222
     12 C          62.3173   88.5908   10.9857 C.ar    1  UNL1        0.0523
     13 C          62.7587   85.1014   12.8239 C.ar    1  UNL1        0.0173
     14 C          62.1435   85.0143   14.1891 C.ar    1  UNL1        0.0015
     15 C          62.6171   83.9738   15.1601 C.ar    1  UNL1        0.0000
     16 C          63.7059   83.0203   14.7660 C.ar    1  UNL1        0.0000
     17 C          64.3211   83.1074   13.4008 C.ar    1  UNL1        0.0000
     18 C          63.8475   84.1479   12.4297 C.ar    1  UNL1        0.0015
     19 C          62.8230   89.9992   11.0897 C.2     1  UNL1        0.2455
     20 O          61.8548   91.1339   11.2474 O.2     1  UNL1       -0.2702
     21 N          64.2969   90.2727   11.0360 N.am    1  UNL1       -0.3040
     22 H          64.9323   89.5279   10.9325 H       1  UNL1        0.1496
     23 C          64.8026   91.6811   11.1400 C.3     1  UNL1        0.0570
     24 C          65.4978   92.1381   12.3882 C.3     1  UNL1        0.0184
     25 C          66.0035   93.5464   12.4922 C.3     1  UNL1        0.0068
     26 C          65.8139   94.4978   11.3480 C.3     1  UNL1        0.0322
     27 C          65.1187   94.0408   10.0999 C.3     1  UNL1        0.0068
     28 C          64.6130   92.6324    9.9959 C.3     1  UNL1        0.0184
     29 C          65.5197   93.7358   11.2446 C.3     1  UNL1        0.0068
     30 C          65.0624   92.4623   11.1506 C.3     1  UNL1        0.0184
     31 C          66.3196   95.9061   11.4520 C.2     1  UNL1        0.0496
     32 O          65.8993   96.7708   12.6034 O.co2   1  UNL1       -0.5492
     33 O          67.2456   96.4498   10.4046 O.co2   1  UNL1       -0.5492
@<TRIPOS>UNITY_ATOM_ATTR
32 1
charge -1
@<TRIPOS>BOND
     1     1     2    1
     2     2     3   ar
     3     3    13    1
     4    13    14   ar
     5    14    15   ar
     6    15    16   ar
     7    16    17   ar
     8    17    18   ar
     9     3     4   ar
    10     4     5   ar
    11     5     6   ar
    12     6     7   ar
    13     7     8   ar
    14     8     9    1
    15     8    10   ar
    16    10    11   ar
    17    11    12   ar
    18    12    19    1
    19    19    20    2
    20    19    21   am
    21    21    23    1
    22    23    24    1
    23    24    25    1
    24    25    26    1
    25    26    31    1
    26    31    32   ar
    27    31    33   ar
    28    26    27    1
    29    27    28    1
    30    26    29    1
    31    29    30    1
    32    12     2   ar
    33    28    23    1
    34    18    13   ar
    35    11     5   ar
    36    30    23    1
    37    21    22    1
@<TRIPOS>MOLECULE
*****
 33 37 0 0 0
SMALL
GASTEIGER

@<TRIPOS>ATOM
      1 C          64.5076   87.8628   14.2425 C.3     1  UNL1        0.0328
      2 C          63.6859   88.6340   13.2524 C.ar    1  UNL1        0.0002
      3 C          63.6646   90.1330   13.3013 C.ar    1  UNL1        0.0774
      4 N          62.8429   90.9042   12.3113 N.ar    1  UNL1       -0.2457
      5 C          62.0425   90.1763   11.2722 C.ar    1  UNL1        0.0814
      6 C          61.2209   90.9474   10.2822 C.ar    1  UNL1        0.0196
      7 C          60.4205   90.2195    9.2432 C.ar    1  UNL1        0.0082
      8 C          60.4418   88.7205    9.1943 C.ar    1  UNL1        0.0347
      9 BR         59.6414   87.9926    8.1552 Br      1  UNL1       -0.0490
     10 C          61.2635   87.9493   10.1843 C.ar    1  UNL1        0.0083
     11 C          62.0638   88.6772   11.2233 C.ar    1  UNL1        0.0222
     12 C          62.8855   87.9061   12.2134 C.ar    1  UNL1        0.0523
     13 C          64.4650   90.8609   14.3404 C.ar    1  UNL1        0.0173
     14 C          65.8750   91.2785   14.0445 C.ar    1  UNL1        0.0015
     15 C          66.6753   92.0064   15.0835 C.ar    1  UNL1        0.0000
     16 C          66.0657   92.3167   16.4185 C.ar    1  UNL1        0.0000
     17 C          64.6557   91.8991   16.7144 C.ar    1  UNL1        0.0000
     18 C          63.8554   91.1712   15.6753 C.ar    1  UNL1        0.0015
     19 C          62.9068   86.4070   12.1644 C.2     1  UNL1        0.2455
     20 O          63.2264   85.7031   10.8790 O.2     1  UNL1       -0.2702
     21 N          62.6085   85.6119   13.4009 N.am    1  UNL1       -0.3040
     22 H          62.3988   86.0740   14.2446 H       1  UNL1        0.1496
     23 C          62.6298   84.1129   13.3520 C.3     1  UNL1        0.0570
     24 C          62.4469   83.4025   12.0435 C.3     1  UNL1        0.0184
     25 C          62.4682   81.9035   11.9945 C.3     1  UNL1        0.0068
     26 C          62.6724   81.1148   13.2540 C.3     1  UNL1        0.0322
     27 C          62.8553   81.8251   14.5624 C.3     1  UNL1        0.0068
     28 C          62.8340   83.3242   14.6114 C.3     1  UNL1        0.0184
     29 C          62.6682   81.9345   13.3307 C.3     1  UNL1        0.0068
     30 C          62.6490   83.2901   13.3750 C.3     1  UNL1        0.0184
     31 C          62.6937   79.6157   13.2051 C.2     1  UNL1        0.0496
     32 O          62.6545   78.8231   14.4779 O.co2   1  UNL1       -0.5492
     33 O          62.7542   78.9093   11.8832 O.co2   1  UNL1       -0.5492
@<TRIPOS>UNITY_ATOM_ATTR
32 1
charge -1
@<TRIPOS>BOND
     1     1     2    1
     2     2     3   ar
     3     3    13    1
     4    13    14   ar
     5    14    15   ar
     6    15    16   ar
     7    16    17   ar
     8    17    18   ar
     9     3     4   ar
    10     4     5   ar
    11     5     6   ar
    12     6     7   ar
    13     7     8   ar
    14     8     9    1
    15     8    10   ar
    16    10    11   ar
    17    11    12   ar
    18    12    19    1
    19    19    20    2
    20    19    21   am
    21    21    23    1
    22    23    24    1
    23    24    25    1
    24    25    26    1
    25    26    31    1
    26    31    32   ar
    27    31    33   ar
    28    26    27    1
    29    27    28    1
    30    26    29    1
    31    29    30    1
    32    12     2   ar
    33    28    23    1
    34    18    13   ar
    35    11     5   ar
    36    30    23    1
    37    21    22    1
@<TRIPOS>MOLECULE
*****
 33 37 0 0 0
SMALL
GASTEIGER

@<TRIPOS>ATOM
      1 C          63.7011   84.3216   13.7550 C.3     1  UNL1        0.0328
      2 C          62.9681   84.7834   12.5304 C.ar    1  UNL1        0.0002
      3 C          62.3659   83.7787   11.5934 C.ar    1  UNL1        0.0774
      4 N          61.6329   84.2404   10.3688 N.ar    1  UNL1       -0.2457
      5 C          61.5022   85.7069   10.0813 C.ar    1  UNL1        0.0814
      6 C          60.7693   86.1686    8.8567 C.ar    1  UNL1        0.0196
      7 C          60.6385   87.6349    8.5692 C.ar    1  UNL1        0.0082
      8 C          61.2408   88.6395    9.5063 C.ar    1  UNL1        0.0347
      9 BR         61.1100   90.1060    9.2187 Br      1  UNL1       -0.0490
     10 C          61.9737   88.1778   10.7308 C.ar    1  UNL1        0.0083
     11 C          62.1044   86.7115   11.0183 C.ar    1  UNL1        0.0222
     12 C          62.8374   86.2497   12.2429 C.ar    1  UNL1        0.0523
     13 C          62.4966   82.3123   11.8809 C.ar    1  UNL1        0.0173
     14 C          63.0025   81.3819   10.8187 C.ar    1  UNL1        0.0015
     15 C          63.1332   79.9156   11.1063 C.ar    1  UNL1        0.0000
     16 C          62.7581   79.3797   12.4561 C.ar    1  UNL1        0.0000
     17 C          62.2523   80.3101   13.5184 C.ar    1  UNL1        0.0000
     18 C          62.1215   81.7764   13.2308 C.ar    1  UNL1        0.0015
     19 C          63.4396   87.2543   13.1799 C.2     1  UNL1        0.2455
     20 O          64.3490   86.8002   14.2830 O.2     1  UNL1       -0.2702
     21 N          63.1325   88.7132   13.0139 N.am    1  UNL1       -0.3040
     22 H          62.5357   89.0113   12.2899 H       1  UNL1        0.1496
     23 C          63.7347   89.7178   13.9509 C.3     1  UNL1        0.0570
     24 C          63.2793   89.7788   15.3788 C.3     1  UNL1        0.0184
     25 C          63.8815   90.7834   16.3159 C.3     1  UNL1        0.0068
     26 C          64.9392   91.7270   15.8250 C.3     1  UNL1        0.0322
     27 C          65.3946   91.6660   14.3971 C.3     1  UNL1        0.0068
     28 C          64.7924   90.6614   13.4601 C.3     1  UNL1        0.0184
     29 C          64.6386   91.1938   15.2744 C.3     1  UNL1        0.0068
     30 C          64.0940   90.2853   14.4270 C.3     1  UNL1        0.0184
     31 C          65.5414   92.7317   16.7620 C.2     1  UNL1        0.0496
     32 O          64.6955   93.3667   17.8255 O.co2   1  UNL1       -0.5492
     33 O          66.9897   93.1013   16.6355 O.co2   1  UNL1       -0.5492
@<TRIPOS>UNITY_ATOM_ATTR
32 1
charge -1
@<TRIPOS>BOND
     1     1     2    1
     2     2     3   ar
     3     3    13    1
     4    13    14   ar
     5    14    15   ar
     6    15    16   ar
     7    16    17   ar
     8    17    18   ar
     9     3     4   ar
    10     4     5   ar
    11     5     6   ar
    12     6     7   ar
    13     7     8   ar
    14     8     9    1
    15     8    10   ar
    16    10    11   ar
    17    11    12   ar
    18    12    19    1
    19    19    20    2
    20    19    21   am
    21    21    23    1
    22    23    24    1
    23    24    25    1
    24    25    26    1
    25    26    31    1
    26    31    32   ar
    27    31    33   ar
    28    26    27    1
    29    27    28    1
    30    26    29    1
    31    29    30    1
    32    12     2   ar
    33    28    23    1
    34    18    13   ar
    35    11     5   ar
    36    30    23    1
    37    21    22    1
@<TRIPOS>MOLECULE
*****
 33 37 0 0 0
SMALL
GASTEIGER

@<TRIPOS>ATOM
      1 C          45.1357   73.9345   14.6646 C.3     1  UNL1        0.0328
      2 C          44.8082   73.3615   16.0117 C.ar    1  UNL1        0.0002
      3 C          44.6485   71.8793   16.1776 C.ar    1  UNL1        0.0774
      4 N          44.3211   71.3063   17.5246 N.ar    1  UNL1       -0.2457
      5 C          44.1533   72.2156   18.7058 C.ar    1  UNL1        0.0814
      6 C          43.8258   71.6426   20.0528 C.ar    1  UNL1        0.0196
      7 C          43.6581   72.5518   21.2339 C.ar    1  UNL1        0.0082
      8 C          43.8178   74.0341   21.0680 C.ar    1  UNL1        0.0347
      9 BR         43.6500   74.9433   22.2492 Br      1  UNL1       -0.0490
     10 C          44.1452   74.6070   19.7210 C.ar    1  UNL1        0.0083
     11 C          44.3130   73.6978   18.5399 C.ar    1  UNL1        0.0222
     12 C          44.6405   74.2708   17.1928 C.ar    1  UNL1        0.0523
     13 C          44.8163   70.9700   14.9964 C.ar    1  UNL1        0.0173
     14 C          46.1416   70.3184   14.7338 C.ar    1  UNL1        0.0015
     15 C          46.3093   69.4092   13.5526 C.ar    1  UNL1        0.0000
     16 C          45.1518   69.1516   12.6341 C.ar    1  UNL1        0.0000
     17 C          43.8265   69.8032   12.8967 C.ar    1  UNL1        0.0000
     18 C          43.6588   70.7124   14.0778 C.ar    1  UNL1        0.0015
     19 C          44.8002   75.7530   17.0270 C.2     1  UNL1        0.2455
     20 O          46.1196   76.4028   17.3215 O.2     1  UNL1       -0.2702
     21 N          43.6403   76.5854   16.5665 N.am    1  UNL1       -0.3040
     22 H          42.7743   76.1589   16.3732 H       1  UNL1        0.1496
     23 C          43.8000   78.0676   16.4007 C.3     1  UNL1        0.0570
     24 C          43.6387   78.6925   15.0465 C.3     1  UNL1        0.0184
     25 C          43.7984   80.1747   14.8806 C.3     1  UNL1        0.0068
     26 C          44.1194   81.0321   16.0689 C.3     1  UNL1        0.0322
     27 C          44.2807   80.4072   17.4230 C.3     1  UNL1        0.0068
     28 C          44.1210   78.9250   17.5888 C.3     1  UNL1        0.0184
     29 C          44.0413   80.2245   16.2091 C.3     1  UNL1        0.0068
     30 C          43.8969   78.8842   16.3591 C.3     1  UNL1        0.0184
     31 C          44.2791   82.5143   15.9030 C.2     1  UNL1        0.0496
     32 O          43.8698   83.4412   17.0090 O.co2   1  UNL1       -0.5492
     33 O          44.8482   83.0696   14.6310 O.co2   1  UNL1       -0.5492
@<TRIPOS>UNITY_ATOM_ATTR
32 1
charge -1
@<TRIPOS>BOND
     1     1     2    1
     2     2     3   ar
     3     3    13    1
     4    13    14   ar
     5    14    15   ar
     6    15    16   ar
     7    16    17   ar
     8    17    18   ar
     9     3     4   ar
    10     4     5   ar
    11     5     6   ar
    12     6     7   ar
    13     7     8   ar
    14     8     9    1
    15     8    10   ar
    16    10    11   ar
    17    11    12   ar
    18    12    19    1
    19    19    20    2
    20    19    21   am
    21    21    23    1
    22    23    24    1
    23    24    25    1
    24    25    26    1
    25    26    31    1
    26    31    32   ar
    27    31    33   ar
    28    26    27    1
    29    27    28    1
    30    26    29    1
    31    29    30    1
    32    12     2   ar
    33    28    23    1
    34    18    13   ar
    35    11     5   ar
    36    30    23    1
    37    21    22    1
