@<TRIPOS>MOLECULE
*****
 32 36 0 0 0
SMALL
GASTEIGER

@<TRIPOS>ATOM
      1 C          63.2484   94.9876   -0.9809 C.3     1  UNL1        0.1275
      2 C          64.4648   95.7009   -1.4922 C.2     1  UNL1        0.0258
      3 C          65.4164   95.8747   -0.3458 C.2     1  UNL1        0.1519
      4 N          66.6328   96.5880   -0.8571 N.2     1  UNL1       -0.1483
      5 N          66.4330   96.8551   -2.3195 N.2     1  UNL1       -0.1721
      6 C          65.0931   96.3068   -2.7120 C.3     1  UNL1        0.1467
      7 C          64.7881   95.2688    0.8741 C.2     1  UNL1        0.2722
      8 O          65.3934   95.2198    2.2457 O.2     1  UNL1       -0.2679
      9 N          63.4481   94.7205    0.4817 N.am    1  UNL1       -0.2479
     10 C          62.1329   93.4941   -2.7907 C.ar    1  UNL1        0.1366
     11 C          60.9282   93.1145   -3.5997 C.ar    1  UNL1        0.0366
     12 C          59.6342   93.8487   -3.4080 C.ar    1  UNL1        0.0031
     13 C          59.5451   94.9625   -2.4073 C.ar    1  UNL1       -0.0001
     14 C          60.7498   95.3421   -1.5983 C.ar    1  UNL1        0.0007
     15 C          62.0437   94.6080   -1.7899 C.ar    1  UNL1        0.0340
     16 C          64.0739   92.7213   -4.3350 C.3     1  UNL1        0.2525
     17 O          63.4268   92.7599   -2.9823 O.3     1  UNL1       -0.4717
     18 C          62.4783   94.0270    1.3918 C.ar    1  UNL1        0.0547
     19 C          62.8588   92.7322    2.0467 C.ar    1  UNL1        0.0151
     20 C          61.8890   92.0387    2.9568 C.ar    1  UNL1        0.0059
     21 C          60.5386   92.6399    3.2121 C.ar    1  UNL1        0.0537
     22 C          60.1581   93.9347    2.5573 C.ar    1  UNL1        0.0059
     23 C          61.1280   94.6282    1.6471 C.ar    1  UNL1        0.0151
     24 C          59.5688   91.9463    4.1223 C.ar    1  UNL1        0.2299
     25 N          59.9200   90.9698    5.2054 N.ar    1  UNL1       -0.2065
     26 C          58.6458   90.5275    5.8616 C.ar    1  UNL1        0.1427
     27 C          57.5071   91.2306    5.1841 C.ar    1  UNL1        0.2021
     28 O          58.0775   92.1075    4.1091 O.2     1  UNL1       -0.4314
     29 C          64.4878   96.3558   -4.0836 C.3     1  UNL1        0.0262
     30 C          63.2007   96.8557   -3.4977 C.3     1  UNL1        0.0023
     31 C          65.7750   95.8559   -4.6695 C.3     1  UNL1        0.0023
     32 C          63.8826   96.4049   -5.4552 C.3     1  UNL1        0.0023
@<TRIPOS>BOND
     1    16    17    1
     2    17    10    1
     3    10    11   ar
     4    11    12   ar
     5    12    13   ar
     6    13    14   ar
     7    14    15   ar
     8    15     1    1
     9     1     2    1
    10     2     3    2
    11     3     4    1
    12     4     5    2
    13     5     6    1
    14     6    29    1
    15    29    30    1
    16    29    31    1
    17    29    32    1
    18     3     7    1
    19     7     8    2
    20     7     9   am
    21     9    18    1
    22    18    19   ar
    23    19    20   ar
    24    20    21   ar
    25    21    24    1
    26    24    25   ar
    27    25    26   ar
    28    26    27   ar
    29    27    28   ar
    30    21    22   ar
    31    22    23   ar
    32    15    10   ar
    33     9     1    1
    34    23    18   ar
    35     6     2    1
    36    28    24   ar
@<TRIPOS>MOLECULE
*****
 32 36 0 0 0
SMALL
GASTEIGER

@<TRIPOS>ATOM
      1 C          62.7240   94.8844   -1.4431 C.3     1  UNL1        0.1275
      2 C          64.0844   95.4679   -1.2007 C.2     1  UNL1        0.0258
      3 C          64.6219   95.9522   -2.5147 C.2     1  UNL1        0.1519
      4 N          65.9824   96.5357   -2.2723 N.2     1  UNL1       -0.1483
      5 N          66.2857   96.4119   -0.8085 N.2     1  UNL1       -0.1721
      6 C          65.1127   95.7520   -0.1462 C.3     1  UNL1        0.1467
      7 C          63.5937   95.6681   -3.5692 C.2     1  UNL1        0.2722
      8 O          63.7168   95.9878   -5.0295 O.2     1  UNL1       -0.2679
      9 N          62.4206   95.0081   -2.9069 N.am    1  UNL1       -0.2479
     10 C          60.7226   95.1022    0.1992 C.ar    1  UNL1        0.1366
     11 C          59.8233   94.5007    1.2382 C.ar    1  UNL1        0.0366
     12 C          60.0262   93.0797    1.6738 C.ar    1  UNL1        0.0031
     13 C          61.1283   92.2603    1.0705 C.ar    1  UNL1       -0.0001
     14 C          62.0276   92.8619    0.0315 C.ar    1  UNL1        0.0007
     15 C          61.8247   94.2828   -0.4041 C.ar    1  UNL1        0.0340
     16 C          59.4590   96.8545   -1.2439 C.3     1  UNL1        0.2525
     17 O          60.5197   96.5231   -0.2365 O.3     1  UNL1       -0.4717
     18 C          61.1649   94.5520   -3.5887 C.ar    1  UNL1        0.0547
     19 C          60.2632   93.5606   -2.9148 C.ar    1  UNL1        0.0151
     20 C          59.0075   93.1045   -3.5966 C.ar    1  UNL1        0.0059
     21 C          58.6533   93.6398   -4.9524 C.ar    1  UNL1        0.0537
     22 C          59.5549   94.6312   -5.6264 C.ar    1  UNL1        0.0059
     23 C          60.8107   95.0873   -4.9445 C.ar    1  UNL1        0.0151
     24 C          57.3974   93.1837   -5.6342 C.ar    1  UNL1        0.2299
     25 N          56.8878   91.7741   -5.6921 N.ar    1  UNL1       -0.2065
     26 C          55.6062   91.7762   -6.4715 C.ar    1  UNL1        0.1427
     27 C          55.3238   93.1871   -6.8953 C.ar    1  UNL1        0.2021
     28 O          56.4308   94.0570   -6.3778 O.2     1  UNL1       -0.4314
     29 C          64.9896   95.4323    1.3142 C.3     1  UNL1        0.0262
     30 C          64.6037   96.8548    1.5930 C.3     1  UNL1        0.0023
     31 C          65.3754   94.0099    1.0353 C.3     1  UNL1        0.0023
     32 C          64.8665   95.1127    2.7745 C.3     1  UNL1        0.0023
@<TRIPOS>BOND
     1    16    17    1
     2    17    10    1
     3    10    11   ar
     4    11    12   ar
     5    12    13   ar
     6    13    14   ar
     7    14    15   ar
     8    15     1    1
     9     1     2    1
    10     2     3    2
    11     3     4    1
    12     4     5    2
    13     5     6    1
    14     6    29    1
    15    29    30    1
    16    29    31    1
    17    29    32    1
    18     3     7    1
    19     7     8    2
    20     7     9   am
    21     9    18    1
    22    18    19   ar
    23    19    20   ar
    24    20    21   ar
    25    21    24    1
    26    24    25   ar
    27    25    26   ar
    28    26    27   ar
    29    27    28   ar
    30    21    22   ar
    31    22    23   ar
    32    15    10   ar
    33     9     1    1
    34    23    18   ar
    35     6     2    1
    36    28    24   ar
@<TRIPOS>MOLECULE
*****
 32 36 0 0 0
SMALL
GASTEIGER

@<TRIPOS>ATOM
      1 C          61.2617   94.0445    0.4860 C.3     1  UNL1        0.1275
      2 C          62.1092   93.4124    1.5501 C.2     1  UNL1        0.0258
      3 C          61.1981   92.7045    2.5087 C.2     1  UNL1        0.1519
      4 N          62.0456   92.0725    3.5728 N.2     1  UNL1       -0.1483
      5 N          63.4804   92.3898    3.2718 N.2     1  UNL1       -0.1721
      6 C          63.5197   93.2179    2.0217 C.3     1  UNL1        0.1467
      7 C          59.7876   92.8990    2.0370 C.2     1  UNL1        0.2722
      8 O          58.5543   92.3600    2.6992 O.2     1  UNL1       -0.2679
      9 N          59.8268   93.7272    0.7869 N.am    1  UNL1       -0.2479
     10 C          61.3881   94.4632   -2.0750 C.ar    1  UNL1        0.1366
     11 C          61.8877   95.2707   -3.2362 C.ar    1  UNL1        0.0366
     12 C          62.7605   96.4672   -2.9974 C.ar    1  UNL1        0.0031
     13 C          63.1336   96.8560   -1.5976 C.ar    1  UNL1       -0.0001
     14 C          62.6340   96.0484   -0.4364 C.ar    1  UNL1        0.0007
     15 C          61.7613   94.8520   -0.6751 C.ar    1  UNL1        0.0340
     16 C          59.4805   93.2979   -3.3990 C.3     1  UNL1        0.2525
     17 O          60.5155   93.2668   -2.3137 O.3     1  UNL1       -0.4717
     18 C          58.6397   94.1617   -0.0204 C.ar    1  UNL1        0.0547
     19 C          58.4698   95.6064   -0.3865 C.ar    1  UNL1        0.0151
     20 C          57.2827   96.0409   -1.1938 C.ar    1  UNL1        0.0059
     21 C          56.2653   95.0308   -1.6352 C.ar    1  UNL1        0.0537
     22 C          56.4352   93.5861   -1.2691 C.ar    1  UNL1        0.0059
     23 C          57.6224   93.1516   -0.4617 C.ar    1  UNL1        0.0151
     24 C          55.0782   95.4653   -2.4425 C.ar    1  UNL1        0.2299
     25 N          53.6952   95.7094   -1.9156 N.ar    1  UNL1       -0.2065
     26 C          52.8278   96.1270   -3.0659 C.ar    1  UNL1        0.1427
     27 C          53.6749   96.1411   -4.3038 C.ar    1  UNL1        0.2021
     28 O          55.0657   95.7321   -3.9186 O.2     1  UNL1       -0.4314
     29 C          64.7530   93.7569    1.3596 C.3     1  UNL1        0.0262
     30 C          64.6691   92.6758    0.3232 C.3     1  UNL1        0.0023
     31 C          64.8370   94.8380    2.3960 C.3     1  UNL1        0.0023
     32 C          65.9864   94.2959    0.6975 C.3     1  UNL1        0.0023
@<TRIPOS>BOND
     1    16    17    1
     2    17    10    1
     3    10    11   ar
     4    11    12   ar
     5    12    13   ar
     6    13    14   ar
     7    14    15   ar
     8    15     1    1
     9     1     2    1
    10     2     3    2
    11     3     4    1
    12     4     5    2
    13     5     6    1
    14     6    29    1
    15    29    30    1
    16    29    31    1
    17    29    32    1
    18     3     7    1
    19     7     8    2
    20     7     9   am
    21     9    18    1
    22    18    19   ar
    23    19    20   ar
    24    20    21   ar
    25    21    24    1
    26    24    25   ar
    27    25    26   ar
    28    26    27   ar
    29    27    28   ar
    30    21    22   ar
    31    22    23   ar
    32    15    10   ar
    33     9     1    1
    34    23    18   ar
    35     6     2    1
    36    28    24   ar
@<TRIPOS>MOLECULE
*****
 32 36 0 0 0
SMALL
GASTEIGER

@<TRIPOS>ATOM
      1 C          62.8607   86.8341   11.8712 C.3     1  UNL1        0.1275
      2 C          63.2429   88.0882   12.6001 C.2     1  UNL1        0.0258
      3 C          64.0674   87.6991   13.7912 C.2     1  UNL1        0.1519
      4 N          64.4496   88.9531   14.5201 N.2     1  UNL1       -0.1483
      5 N          63.8612   90.1173   13.7794 N.2     1  UNL1       -0.1721
      6 C          63.1154   89.5828   12.5928 C.3     1  UNL1        0.1467
      7 C          64.1949   86.2045   13.7984 C.2     1  UNL1        0.2722
      8 O          64.9377   85.3879   14.8140 O.2     1  UNL1       -0.2679
      9 N          63.4491   85.6699   12.6118 N.am    1  UNL1       -0.2479
     10 C          60.6207   87.2574   10.6247 C.ar    1  UNL1        0.1366
     11 C          59.7952   87.1809    9.3747 C.ar    1  UNL1        0.0366
     12 C          60.3839   86.6047    8.1211 C.ar    1  UNL1        0.0031
     13 C          61.7982   86.1051    8.1176 C.ar    1  UNL1       -0.0001
     14 C          62.6238   86.1815    9.3676 C.ar    1  UNL1        0.0007
     15 C          62.0351   86.7577   10.6212 C.ar    1  UNL1        0.0340
     16 C          58.8214   88.7158   11.8016 C.3     1  UNL1        0.2525
     17 O          60.0320   87.8336   11.8783 O.3     1  UNL1       -0.4717
     18 C          63.3152   84.2249   12.2325 C.ar    1  UNL1        0.0547
     19 C          62.4642   83.3079   13.0602 C.ar    1  UNL1        0.0151
     20 C          62.3303   81.8629   12.6808 C.ar    1  UNL1        0.0059
     21 C          63.0473   81.3348   11.4737 C.ar    1  UNL1        0.0537
     22 C          63.8983   82.2518   10.6460 C.ar    1  UNL1        0.0059
     23 C          64.0321   83.6968   11.0254 C.ar    1  UNL1        0.0151
     24 C          62.9134   79.8898   11.0943 C.ar    1  UNL1        0.2299
     25 N          63.0316   79.3274    9.7087 N.ar    1  UNL1       -0.2065
     26 C          62.8290   77.8435    9.7920 C.ar    1  UNL1        0.1427
     27 C          62.5856   77.4888   11.2290 C.ar    1  UNL1        0.2021
     28 O          62.6378   78.7535   12.0339 O.2     1  UNL1       -0.4314
     29 C          62.3726   90.3994   11.5773 C.3     1  UNL1        0.0262
     30 C          61.1997   90.4897   12.5079 C.3     1  UNL1        0.0023
     31 C          63.5456   90.3091   10.6467 C.3     1  UNL1        0.0023
     32 C          61.6298   91.2160   10.5617 C.3     1  UNL1        0.0023
@<TRIPOS>BOND
     1    16    17    1
     2    17    10    1
     3    10    11   ar
     4    11    12   ar
     5    12    13   ar
     6    13    14   ar
     7    14    15   ar
     8    15     1    1
     9     1     2    1
    10     2     3    2
    11     3     4    1
    12     4     5    2
    13     5     6    1
    14     6    29    1
    15    29    30    1
    16    29    31    1
    17    29    32    1
    18     3     7    1
    19     7     8    2
    20     7     9   am
    21     9    18    1
    22    18    19   ar
    23    19    20   ar
    24    20    21   ar
    25    21    24    1
    26    24    25   ar
    27    25    26   ar
    28    26    27   ar
    29    27    28   ar
    30    21    22   ar
    31    22    23   ar
    32    15    10   ar
    33     9     1    1
    34    23    18   ar
    35     6     2    1
    36    28    24   ar
@<TRIPOS>MOLECULE
*****
 32 36 0 0 0
SMALL
GASTEIGER

@<TRIPOS>ATOM
      1 C          60.2853   94.7641   -3.0344 C.3     1  UNL1        0.1275
      2 C          61.0325   95.4927   -4.1118 C.2     1  UNL1        0.0258
      3 C          62.3608   95.9101   -3.5537 C.2     1  UNL1        0.1519
      4 N          63.1081   96.6387   -4.6310 N.2     1  UNL1       -0.1483
      5 N          62.2416   96.6716   -5.8550 N.2     1  UNL1       -0.1721
      6 C          60.9589   95.9633   -5.5341 C.3     1  UNL1        0.1467
      7 C          62.4345   95.4395   -2.1313 C.2     1  UNL1        0.2722
      8 O          63.5883   95.6416   -1.1944 O.2     1  UNL1       -0.2679
      9 N          61.1518   94.7311   -1.8103 N.am    1  UNL1       -0.2479
     10 C          57.7042   95.0141   -2.8741 C.ar    1  UNL1        0.1366
     11 C          56.3316   94.4222   -2.9988 C.ar    1  UNL1        0.0366
     12 C          56.1673   92.9886   -3.4086 C.ar    1  UNL1        0.0031
     13 C          57.3757   92.1469   -3.6936 C.ar    1  UNL1       -0.0001
     14 C          58.7483   92.7387   -3.5689 C.ar    1  UNL1        0.0007
     15 C          58.9126   94.1723   -3.1591 C.ar    1  UNL1        0.0340
     16 C          57.7928   96.8267   -1.0151 C.3     1  UNL1        0.2525
     17 O          57.8685   96.4476   -2.4643 O.3     1  UNL1       -0.4717
     18 C          60.7977   94.1007   -0.4962 C.ar    1  UNL1        0.0547
     19 C          60.5779   94.9605    0.7132 C.ar    1  UNL1        0.0151
     20 C          60.2238   94.3300    2.0273 C.ar    1  UNL1        0.0059
     21 C          60.0895   92.8397    2.1322 C.ar    1  UNL1        0.0537
     22 C          60.3092   91.9799    0.9229 C.ar    1  UNL1        0.0059
     23 C          60.6633   92.6104   -0.3913 C.ar    1  UNL1        0.0151
     24 C          59.7353   92.2092    3.4464 C.ar    1  UNL1        0.2299
     25 N          58.3698   92.1697    4.0657 N.ar    1  UNL1       -0.2065
     26 C          58.4750   91.4437    5.3741 C.ar    1  UNL1        0.1427
     27 C          59.9057   91.0345    5.5633 C.ar    1  UNL1        0.2021
     28 O          60.6846   91.5076    4.3719 O.2     1  UNL1       -0.4314
     29 C          59.8051   95.7612   -6.4711 C.3     1  UNL1        0.0262
     30 C          59.0495   96.8552   -5.7766 C.3     1  UNL1        0.0023
     31 C          60.5607   94.6672   -7.1656 C.3     1  UNL1        0.0023
     32 C          58.6513   95.5591   -7.4080 C.3     1  UNL1        0.0023
@<TRIPOS>BOND
     1    16    17    1
     2    17    10    1
     3    10    11   ar
     4    11    12   ar
     5    12    13   ar
     6    13    14   ar
     7    14    15   ar
     8    15     1    1
     9     1     2    1
    10     2     3    2
    11     3     4    1
    12     4     5    2
    13     5     6    1
    14     6    29    1
    15    29    30    1
    16    29    31    1
    17    29    32    1
    18     3     7    1
    19     7     8    2
    20     7     9   am
    21     9    18    1
    22    18    19   ar
    23    19    20   ar
    24    20    21   ar
    25    21    24    1
    26    24    25   ar
    27    25    26   ar
    28    26    27   ar
    29    27    28   ar
    30    21    22   ar
    31    22    23   ar
    32    15    10   ar
    33     9     1    1
    34    23    18   ar
    35     6     2    1
    36    28    24   ar
@<TRIPOS>MOLECULE
*****
 32 36 0 0 0
SMALL
GASTEIGER

@<TRIPOS>ATOM
      1 C          59.9104   94.3192   -3.5636 C.3     1  UNL1        0.1275
      2 C          60.5947   94.5860   -4.8715 C.2     1  UNL1        0.0258
      3 C          62.0433   94.2281   -4.7182 C.2     1  UNL1        0.1519
      4 N          62.7276   94.4949   -6.0261 N.2     1  UNL1       -0.1483
      5 N          61.7019   95.0177   -6.9877 N.2     1  UNL1       -0.1721
      6 C          60.3837   95.0740   -6.2741 C.3     1  UNL1        0.1467
      7 C          62.2543   93.7401   -3.3156 C.2     1  UNL1        0.2722
      8 O          63.5550   93.2771   -2.7295 O.2     1  UNL1       -0.2679
      9 N          60.9361   93.7964   -2.6020 N.am    1  UNL1       -0.2479
     10 C          57.4418   93.5217   -3.7064 C.ar    1  UNL1        0.1366
     11 C          55.9872   93.7395   -3.4118 C.ar    1  UNL1        0.0366
     12 C          55.5466   94.9725   -2.6798 C.ar    1  UNL1        0.0031
     13 C          56.5606   95.9877   -2.2426 C.ar    1  UNL1       -0.0001
     14 C          58.0152   95.7699   -2.5371 C.ar    1  UNL1        0.0007
     15 C          58.4558   94.5370   -3.2690 C.ar    1  UNL1        0.0340
     16 C          57.0997   91.7982   -5.6200 C.3     1  UNL1        0.2525
     17 O          57.8824   92.2888   -4.4382 O.3     1  UNL1       -0.4717
     18 C          60.6873   93.3996   -1.1770 C.ar    1  UNL1        0.0547
     19 C          59.5280   92.5102   -0.8376 C.ar    1  UNL1        0.0151
     20 C          59.2792   92.1134    0.5873 C.ar    1  UNL1        0.0059
     21 C          60.1897   92.6060    1.6730 C.ar    1  UNL1        0.0537
     22 C          61.3489   93.4953    1.3336 C.ar    1  UNL1        0.0059
     23 C          61.5977   93.8921   -0.0914 C.ar    1  UNL1        0.0151
     24 C          59.9408   92.2091    3.0980 C.ar    1  UNL1        0.2299
     25 N          60.9262   91.5444    4.0130 N.ar    1  UNL1       -0.2065
     26 C          60.2573   91.3318    5.3387 C.ar    1  UNL1        0.1427
     27 C          58.8586   91.8651    5.2430 C.ar    1  UNL1        0.2021
     28 O          58.6630   92.4073    3.8581 O.2     1  UNL1       -0.4314
     29 C          59.0829   95.5370   -6.8602 C.3     1  UNL1        0.0262
     30 C          59.2367   96.8549   -6.1605 C.3     1  UNL1        0.0023
     31 C          58.9291   94.2192   -7.5600 C.3     1  UNL1        0.0023
     32 C          57.7821   96.0000   -7.4464 C.3     1  UNL1        0.0023
@<TRIPOS>BOND
     1    16    17    1
     2    17    10    1
     3    10    11   ar
     4    11    12   ar
     5    12    13   ar
     6    13    14   ar
     7    14    15   ar
     8    15     1    1
     9     1     2    1
    10     2     3    2
    11     3     4    1
    12     4     5    2
    13     5     6    1
    14     6    29    1
    15    29    30    1
    16    29    31    1
    17    29    32    1
    18     3     7    1
    19     7     8    2
    20     7     9   am
    21     9    18    1
    22    18    19   ar
    23    19    20   ar
    24    20    21   ar
    25    21    24    1
    26    24    25   ar
    27    25    26   ar
    28    26    27   ar
    29    27    28   ar
    30    21    22   ar
    31    22    23   ar
    32    15    10   ar
    33     9     1    1
    34    23    18   ar
    35     6     2    1
    36    28    24   ar
@<TRIPOS>MOLECULE
*****
 32 36 0 0 0
SMALL
GASTEIGER

@<TRIPOS>ATOM
      1 C          61.7786   93.9041   -0.6382 C.3     1  UNL1        0.1275
      2 C          62.2109   93.4881    0.7366 C.2     1  UNL1        0.0258
      3 C          61.0051   92.9746    1.4661 C.2     1  UNL1        0.1519
      4 N          61.4373   92.5586    2.8409 N.2     1  UNL1       -0.1483
      5 N          62.9104   92.8151    2.9611 N.2     1  UNL1       -0.1721
      6 C          63.3885   93.3896    1.6605 C.3     1  UNL1        0.1467
      7 C          59.8275   93.0731    0.5422 C.2     1  UNL1        0.2722
      8 O          58.4192   92.6683    0.8625 O.2     1  UNL1       -0.2679
      9 N          60.3056   93.6476   -0.7584 N.am    1  UNL1       -0.2479
     10 C          63.2225   95.8600   -1.5545 C.ar    1  UNL1        0.1366
     11 C          64.1078   96.4320   -2.6218 C.ar    1  UNL1        0.0366
     12 C          64.4345   95.6201   -3.8401 C.ar    1  UNL1        0.0031
     13 C          63.8759   94.2362   -3.9910 C.ar    1  UNL1       -0.0001
     14 C          62.9906   93.6642   -2.9237 C.ar    1  UNL1        0.0007
     15 C          62.6639   94.4761   -1.7055 C.ar    1  UNL1        0.0340
     16 C          61.4671   96.8543    0.0824 C.3     1  UNL1        0.2525
     17 O          62.8958   96.6719   -0.3363 O.3     1  UNL1       -0.4717
     18 C          59.4593   93.9180   -1.9669 C.ar    1  UNL1        0.0547
     19 C          59.3817   95.3050   -2.5331 C.ar    1  UNL1        0.0151
     20 C          58.5354   95.5754   -3.7416 C.ar    1  UNL1        0.0059
     21 C          57.7665   94.4590   -4.3840 C.ar    1  UNL1        0.0537
     22 C          57.8441   93.0721   -3.8178 C.ar    1  UNL1        0.0059
     23 C          58.6905   92.8017   -2.6093 C.ar    1  UNL1        0.0151
     24 C          56.9202   94.7295   -5.5925 C.ar    1  UNL1        0.2299
     25 N          56.9896   95.9496   -6.4623 N.ar    1  UNL1       -0.2065
     26 C          55.9682   95.8016   -7.5508 C.ar    1  UNL1        0.1427
     27 C          55.2676   94.4900   -7.3537 C.ar    1  UNL1        0.2021
     28 O          55.8559   93.8274   -6.1434 O.2     1  UNL1       -0.4314
     29 C          64.7968   93.7944    1.3402 C.3     1  UNL1        0.0262
     30 C          64.6527   94.9965    2.2257 C.3     1  UNL1        0.0023
     31 C          64.9409   92.5923    0.4547 C.3     1  UNL1        0.0023
     32 C          66.2052   94.1992    1.0199 C.3     1  UNL1        0.0023
@<TRIPOS>BOND
     1    16    17    1
     2    17    10    1
     3    10    11   ar
     4    11    12   ar
     5    12    13   ar
     6    13    14   ar
     7    14    15   ar
     8    15     1    1
     9     1     2    1
    10     2     3    2
    11     3     4    1
    12     4     5    2
    13     5     6    1
    14     6    29    1
    15    29    30    1
    16    29    31    1
    17    29    32    1
    18     3     7    1
    19     7     8    2
    20     7     9   am
    21     9    18    1
    22    18    19   ar
    23    19    20   ar
    24    20    21   ar
    25    21    24    1
    26    24    25   ar
    27    25    26   ar
    28    26    27   ar
    29    27    28   ar
    30    21    22   ar
    31    22    23   ar
    32    15    10   ar
    33     9     1    1
    34    23    18   ar
    35     6     2    1
    36    28    24   ar
@<TRIPOS>MOLECULE
*****
 32 36 0 0 0
SMALL
GASTEIGER

@<TRIPOS>ATOM
      1 C          60.4555   94.2281   -3.8842 C.3     1  UNL1        0.1275
      2 C          59.9323   94.2990   -5.2882 C.2     1  UNL1        0.0258
      3 C          58.6057   93.5998   -5.3245 C.2     1  UNL1        0.1519
      4 N          58.0826   93.6707   -6.7285 N.2     1  UNL1       -0.1483
      5 N          59.0858   94.4138   -7.5599 N.2     1  UNL1       -0.1721
      6 C          60.2290   94.8021   -6.6698 C.3     1  UNL1        0.1467
      7 C          58.3090   93.0967   -3.9429 C.2     1  UNL1        0.2722
      8 O          57.0842   92.3385   -3.5247 O.2     1  UNL1       -0.2679
      9 N          59.4522   93.4850   -3.0526 N.am    1  UNL1       -0.2479
     10 C          63.0356   94.0567   -3.6317 C.ar    1  UNL1        0.1366
     11 C          64.3340   94.6285   -3.1447 C.ar    1  UNL1        0.0366
     12 C          64.3507   95.9434   -2.4231 C.ar    1  UNL1        0.0031
     13 C          63.0690   96.6866   -2.1885 C.ar    1  UNL1       -0.0001
     14 C          61.7706   96.1148   -2.6756 C.ar    1  UNL1        0.0007
     15 C          61.7539   94.7999   -3.3971 C.ar    1  UNL1        0.0340
     16 C          64.2578   92.2465   -5.0385 C.3     1  UNL1        0.2525
     17 O          63.0188   92.7418   -4.3533 O.3     1  UNL1       -0.4717
     18 C          59.5712   93.1833   -1.5882 C.ar    1  UNL1        0.0547
     19 C          60.7586   92.4253   -1.0727 C.ar    1  UNL1        0.0151
     20 C          60.8776   92.1236    0.3918 C.ar    1  UNL1        0.0059
     21 C          59.8093   92.5798    1.3408 C.ar    1  UNL1        0.0537
     22 C          58.6219   93.3377    0.8254 C.ar    1  UNL1        0.0059
     23 C          58.5030   93.6395   -0.6392 C.ar    1  UNL1        0.0151
     24 C          59.9283   92.2780    2.8053 C.ar    1  UNL1        0.2299
     25 N          58.8326   92.3994    3.8225 N.ar    1  UNL1       -0.2065
     26 C          59.3910   91.9983    5.1556 C.ar    1  UNL1        0.1427
     27 C          60.8320   91.6289    4.9623 C.ar    1  UNL1        0.2021
     28 O          61.1640   91.8018    3.5098 O.2     1  UNL1       -0.4314
     29 C          61.4538   95.5604   -7.0879 C.3     1  UNL1        0.0262
     30 C          60.7546   96.8537   -6.7906 C.3     1  UNL1        0.0023
     31 C          62.1530   94.2670   -7.3852 C.3     1  UNL1        0.0023
     32 C          62.6787   96.3186   -7.5060 C.3     1  UNL1        0.0023
@<TRIPOS>BOND
     1    16    17    1
     2    17    10    1
     3    10    11   ar
     4    11    12   ar
     5    12    13   ar
     6    13    14   ar
     7    14    15   ar
     8    15     1    1
     9     1     2    1
    10     2     3    2
    11     3     4    1
    12     4     5    2
    13     5     6    1
    14     6    29    1
    15    29    30    1
    16    29    31    1
    17    29    32    1
    18     3     7    1
    19     7     8    2
    20     7     9   am
    21     9    18    1
    22    18    19   ar
    23    19    20   ar
    24    20    21   ar
    25    21    24    1
    26    24    25   ar
    27    25    26   ar
    28    26    27   ar
    29    27    28   ar
    30    21    22   ar
    31    22    23   ar
    32    15    10   ar
    33     9     1    1
    34    23    18   ar
    35     6     2    1
    36    28    24   ar
@<TRIPOS>MOLECULE
*****
 32 36 0 0 0
SMALL
GASTEIGER

@<TRIPOS>ATOM
      1 C          62.1374   94.1185   -0.5758 C.3     1  UNL1        0.1275
      2 C          62.4906   93.5302    0.7581 C.2     1  UNL1        0.0258
      3 C          61.2484   92.9244    1.3412 C.2     1  UNL1        0.1519
      4 N          61.6015   92.3361    2.6750 N.2     1  UNL1       -0.1483
      5 N          63.0620   92.5784    2.9163 N.2     1  UNL1       -0.1721
      6 C          63.6115   93.3164    1.7316 C.3     1  UNL1        0.1467
      7 C          60.1274   93.1383    0.3676 C.2     1  UNL1        0.2722
      8 O          58.7065   92.6925    0.5472 O.2     1  UNL1       -0.2679
      9 N          60.6768   93.8763   -0.8171 N.am    1  UNL1       -0.2479
     10 C          63.4351   94.2069   -2.8248 C.ar    1  UNL1        0.1366
     11 C          64.3770   94.9134   -3.7542 C.ar    1  UNL1        0.0366
     12 C          64.9631   96.2379   -3.3638 C.ar    1  UNL1        0.0031
     13 C          64.6074   96.8558   -2.0442 C.ar    1  UNL1       -0.0001
     14 C          63.6655   96.1493   -1.1148 C.ar    1  UNL1        0.0007
     15 C          63.0793   94.8249   -1.5051 C.ar    1  UNL1        0.0340
     16 C          63.5302   92.0365   -4.2495 C.3     1  UNL1        0.2525
     17 O          62.8489   92.8826   -3.2151 O.3     1  UNL1       -0.4717
     18 C          59.9018   94.2979   -2.0301 C.ar    1  UNL1        0.0547
     19 C          59.2504   93.2645   -2.9007 C.ar    1  UNL1        0.0151
     20 C          58.4755   93.6862   -4.1137 C.ar    1  UNL1        0.0059
     21 C          58.3518   95.1414   -4.4563 C.ar    1  UNL1        0.0537
     22 C          59.0031   96.1748   -3.5858 C.ar    1  UNL1        0.0059
     23 C          59.7782   95.7530   -2.3727 C.ar    1  UNL1        0.0151
     24 C          57.5768   95.5631   -5.6694 C.ar    1  UNL1        0.2299
     25 N          57.7429   96.8526   -6.4174 N.ar    1  UNL1       -0.2065
     26 C          56.7684   96.8558   -7.5577 C.ar    1  UNL1        0.1427
     27 C          56.0001   95.5682   -7.5144 C.ar    1  UNL1        0.2021
     28 O          56.4997   94.7693   -6.3474 O.2     1  UNL1       -0.4314
     29 C          65.0324   93.7622    1.5520 C.3     1  UNL1        0.0262
     30 C          64.7588   94.9733    2.3937 C.3     1  UNL1        0.0023
     31 C          65.3060   92.5511    0.7104 C.3     1  UNL1        0.0023
     32 C          66.4533   94.2080    1.3724 C.3     1  UNL1        0.0023
@<TRIPOS>BOND
     1    16    17    1
     2    17    10    1
     3    10    11   ar
     4    11    12   ar
     5    12    13   ar
     6    13    14   ar
     7    14    15   ar
     8    15     1    1
     9     1     2    1
    10     2     3    2
    11     3     4    1
    12     4     5    2
    13     5     6    1
    14     6    29    1
    15    29    30    1
    16    29    31    1
    17    29    32    1
    18     3     7    1
    19     7     8    2
    20     7     9   am
    21     9    18    1
    22    18    19   ar
    23    19    20   ar
    24    20    21   ar
    25    21    24    1
    26    24    25   ar
    27    25    26   ar
    28    26    27   ar
    29    27    28   ar
    30    21    22   ar
    31    22    23   ar
    32    15    10   ar
    33     9     1    1
    34    23    18   ar
    35     6     2    1
    36    28    24   ar
