@<TRIPOS>MOLECULE
*****
 34 37 0 0 0
SMALL
GASTEIGER

@<TRIPOS>ATOM
      1 C          63.8518   87.3413   14.0211 C.ar    1  UNL1        0.1665
      2 N          63.7722   86.7356   15.3910 N.ar    1  UNL1       -0.1866
      3 C          63.3801   85.2969   15.5532 C.ar    1  UNL1        0.2814
      4 O          63.3004   84.6911   16.9232 O.2     1  UNL1       -0.2651
      5 C          63.0676   84.4639   14.3455 C.ar    1  UNL1        0.0699
      6 C          62.6755   83.0252   14.5078 C.ar    1  UNL1        0.0096
      7 C          62.3630   82.1922   13.3001 C.ar    1  UNL1        0.0777
      8 C          62.4427   82.7980   11.9301 C.ar    1  UNL1        0.0797
      9 C          62.8348   84.2367   11.7679 C.ar    1  UNL1        0.2960
     10 C          63.1472   85.0697   12.9756 C.ar    1  UNL1        0.1059
     11 S          63.5393   86.5084   12.8134 S.2     1  UNL1       -0.0466
     12 N          65.0282   91.6576   13.5343 N.3     1  UNL1       -0.2698
     13 C          65.6428   90.8310   14.6248 C.3     1  UNL1        0.0939
     14 C          65.2507   89.3923   14.7871 C.3     1  UNL1        0.1100
     15 N          64.2439   88.7801   13.8588 N.pl3   1  UNL1       -0.2852
     16 C          63.6293   89.6066   12.7683 C.3     1  UNL1        0.1100
     17 C          64.0214   91.0453   12.6061 C.3     1  UNL1        0.0939
     18 C          65.4203   93.0963   13.3721 C.3     1  UNL1        0.0722
     19 N          67.7956   94.9932    8.1992 N.2     1  UNL1       -0.0917
     20 C          67.2018   94.5189    9.4924 C.2     1  UNL1        0.0748
     21 C          66.4228   95.4690   10.3530 C.3     1  UNL1        0.0447
     22 C          65.8290   94.9948   11.6463 C.3     1  UNL1        0.0074
     23 C          66.0141   93.5705   12.0789 C.3     1  UNL1        0.0167
     24 C          66.7931   92.6204   11.2182 C.3     1  UNL1        0.0074
     25 C          67.3869   93.0947    9.9250 C.3     1  UNL1        0.0447
     26 C          66.3124   96.8523    7.1533 C.3     1  UNL1        0.2885
     27 O          67.6104   96.4174    7.7665 O.2     1  UNL1       -0.3737
     28 C          61.9709   80.7535   13.4623 C.3     1  UNL1        0.4188
     29 F          61.5788   79.3147   13.6245 F       1  UNL1       -0.1659
     30 F          60.9511   81.1472   14.4893 F       1  UNL1       -0.1659
     31 F          62.9908   80.3598   12.4352 F       1  UNL1       -0.1659
     32 N          62.9144   84.8424   10.3980 N.pl3   1  UNL1        0.0814
     33 O          62.1449   86.0913   10.0842 O.2     1  UNL1        0.0415
     34 O          63.7635   84.1994    9.3418 O.co2   1  UNL1       -0.5760
@<TRIPOS>UNITY_ATOM_ATTR
32 1
charge 1
34 1
charge -1
@<TRIPOS>BOND
     1    26    27    1
     2    27    19    1
     3    19    20    2
     4    20    21    1
     5    21    22    1
     6    22    23    1
     7    23    18    1
     8    18    12    1
     9    12    13    1
    10    13    14    1
    11    14    15    1
    12    15     1    1
    13     1     2   ar
    14     2     3   ar
    15     3     4    2
    16     3     5   ar
    17     5     6   ar
    18     6     7   ar
    19     7    28    1
    20    28    29    1
    21    28    30    1
    22    28    31    1
    23     7     8   ar
    24     8     9   ar
    25     9    32    1
    26    32    33    2
    27    32    34    1
    28     9    10   ar
    29    10    11   ar
    30    15    16    1
    31    16    17    1
    32    23    24    1
    33    24    25    1
    34    25    20    1
    35    17    12    1
    36    11     1   ar
    37    10     5   ar
@<TRIPOS>MOLECULE
*****
 34 37 0 0 0
SMALL
GASTEIGER

@<TRIPOS>ATOM
      1 C          63.1238   90.1473   11.9633 C.ar    1  UNL1        0.1665
      2 N          63.0441   89.4239   13.2749 N.ar    1  UNL1       -0.1866
      3 C          64.0490   89.7095   14.3512 C.ar    1  UNL1        0.2814
      4 O          63.9693   88.9860   15.6628 O.2     1  UNL1       -0.2651
      5 C          65.1337   90.7185   14.1159 C.ar    1  UNL1        0.0699
      6 C          66.1386   91.0041   15.1923 C.ar    1  UNL1        0.0096
      7 C          67.2233   92.0132   14.9571 C.ar    1  UNL1        0.0777
      8 C          67.3030   92.7366   13.6454 C.ar    1  UNL1        0.0797
      9 C          66.2981   92.4510   12.5691 C.ar    1  UNL1        0.2960
     10 C          65.2134   91.4420   12.8044 C.ar    1  UNL1        0.1059
     11 S          64.2085   91.1563   11.7281 S.2     1  UNL1       -0.0466
     12 N          60.1089   89.2906    8.7342 N.3     1  UNL1       -0.2698
     13 C          59.8769   90.4169    9.6973 C.3     1  UNL1        0.0939
     14 C          60.8818   90.7025   10.7736 C.3     1  UNL1        0.1100
     15 N          62.1188   89.8617   10.8869 N.pl3   1  UNL1       -0.2852
     16 C          62.3509   88.7354    9.9239 C.3     1  UNL1        0.1100
     17 C          61.3460   88.4498    8.8475 C.3     1  UNL1        0.0939
     18 C          59.1040   89.0050    7.6579 C.3     1  UNL1        0.0722
     19 N          58.6715   92.6523    2.9135 N.2     1  UNL1       -0.0917
     20 C          58.7796   91.7405    4.0995 C.2     1  UNL1        0.0748
     21 C          60.1257   91.2653    4.5599 C.3     1  UNL1        0.0447
     22 C          60.2339   90.3534    5.7461 C.3     1  UNL1        0.0074
     23 C          58.9959   89.9168    6.4718 C.3     1  UNL1        0.0167
     24 C          57.6497   90.3921    6.0113 C.3     1  UNL1        0.0074
     25 C          57.5416   91.3039    4.8252 C.3     1  UNL1        0.0447
     26 C          60.1243   92.6831    0.7597 C.3     1  UNL1        0.2885
     27 O          59.9095   93.0889    2.1877 O.2     1  UNL1       -0.3737
     28 C          68.2282   92.2988   16.0334 C.3     1  UNL1        0.4188
     29 F          69.2332   92.5844   17.1097 F       1  UNL1       -0.1659
     30 F          69.3190   92.3380   15.0045 F       1  UNL1       -0.1659
     31 F          67.1374   92.2595   17.0622 F       1  UNL1       -0.1659
     32 N          66.3778   93.1744   11.2575 N.pl3   1  UNL1        0.0814
     33 O          67.1547   92.5811   10.1197 O.2     1  UNL1        0.0415
     34 O          65.6807   94.4912   11.0837 O.co2   1  UNL1       -0.5760
@<TRIPOS>UNITY_ATOM_ATTR
32 1
charge 1
34 1
charge -1
@<TRIPOS>BOND
     1    26    27    1
     2    27    19    1
     3    19    20    2
     4    20    21    1
     5    21    22    1
     6    22    23    1
     7    23    18    1
     8    18    12    1
     9    12    13    1
    10    13    14    1
    11    14    15    1
    12    15     1    1
    13     1     2   ar
    14     2     3   ar
    15     3     4    2
    16     3     5   ar
    17     5     6   ar
    18     6     7   ar
    19     7    28    1
    20    28    29    1
    21    28    30    1
    22    28    31    1
    23     7     8   ar
    24     8     9   ar
    25     9    32    1
    26    32    33    2
    27    32    34    1
    28     9    10   ar
    29    10    11   ar
    30    15    16    1
    31    16    17    1
    32    23    24    1
    33    24    25    1
    34    25    20    1
    35    17    12    1
    36    11     1   ar
    37    10     5   ar
@<TRIPOS>MOLECULE
*****
 34 37 0 0 0
SMALL
GASTEIGER

@<TRIPOS>ATOM
      1 C          64.0581   89.2112   12.9467 C.ar    1  UNL1        0.1665
      2 N          63.4254   89.5787   11.6372 N.ar    1  UNL1       -0.1866
      3 C          63.7094   90.9139   11.0157 C.ar    1  UNL1        0.2814
      4 O          63.0767   91.2815    9.7062 O.2     1  UNL1       -0.2651
      5 C          64.6260   91.8817   11.7035 C.ar    1  UNL1        0.0699
      6 C          64.9100   93.2170   11.0819 C.ar    1  UNL1        0.0096
      7 C          65.8267   94.1848   11.7697 C.ar    1  UNL1        0.0777
      8 C          66.4594   93.8173   13.0792 C.ar    1  UNL1        0.0797
      9 C          66.1754   92.4820   13.7008 C.ar    1  UNL1        0.2960
     10 C          65.2587   91.5142   13.0129 C.ar    1  UNL1        0.1059
     11 S          64.9747   90.1790   13.6345 S.2     1  UNL1       -0.0466
     12 N          63.2062   85.2053   14.8115 N.3     1  UNL1       -0.2698
     13 C          62.8850   85.4431   13.3657 C.3     1  UNL1        0.0939
     14 C          63.1690   86.7784   12.7441 C.3     1  UNL1        0.1100
     15 N          63.7741   87.8759   13.5683 N.pl3   1  UNL1       -0.2852
     16 C          64.0953   87.6381   15.0141 C.3     1  UNL1        0.1100
     17 C          63.8113   86.3028   15.6357 C.3     1  UNL1        0.0939
     18 C          62.9222   83.8700   15.4331 C.3     1  UNL1        0.0722
     19 N          62.1105   79.0518   11.9509 N.2     1  UNL1       -0.0917
     20 C          62.3134   80.2564   12.8214 C.2     1  UNL1        0.0748
     21 C          63.5310   81.1141   12.6431 C.3     1  UNL1        0.0447
     22 C          63.7339   82.3187   13.5136 C.3     1  UNL1        0.0074
     23 C          62.7193   82.6655   14.5625 C.3     1  UNL1        0.0167
     24 C          61.5017   81.8077   14.7409 C.3     1  UNL1        0.0074
     25 C          61.2988   80.6032   13.8703 C.3     1  UNL1        0.0447
     26 C          62.9794   79.2448    9.5100 C.3     1  UNL1        0.2885
     27 O          63.1251   78.7050   10.9020 O.2     1  UNL1       -0.3737
     28 C          66.1107   95.5201   11.1482 C.3     1  UNL1        0.4188
     29 F          66.3947   96.8554   10.5266 F       1  UNL1       -0.1659
     30 F          66.1326   96.1492   12.5096 F       1  UNL1       -0.1659
     31 F          66.0887   94.8910    9.7867 F       1  UNL1       -0.1659
     32 N          66.8081   92.1145   15.0102 N.pl3   1  UNL1        0.0814
     33 O          66.0620   92.3373   16.2924 O.2     1  UNL1        0.0415
     34 O          68.1868   91.5243   15.0376 O.co2   1  UNL1       -0.5760
@<TRIPOS>UNITY_ATOM_ATTR
32 1
charge 1
34 1
charge -1
@<TRIPOS>BOND
     1    26    27    1
     2    27    19    1
     3    19    20    2
     4    20    21    1
     5    21    22    1
     6    22    23    1
     7    23    18    1
     8    18    12    1
     9    12    13    1
    10    13    14    1
    11    14    15    1
    12    15     1    1
    13     1     2   ar
    14     2     3   ar
    15     3     4    2
    16     3     5   ar
    17     5     6   ar
    18     6     7   ar
    19     7    28    1
    20    28    29    1
    21    28    30    1
    22    28    31    1
    23     7     8   ar
    24     8     9   ar
    25     9    32    1
    26    32    33    2
    27    32    34    1
    28     9    10   ar
    29    10    11   ar
    30    15    16    1
    31    16    17    1
    32    23    24    1
    33    24    25    1
    34    25    20    1
    35    17    12    1
    36    11     1   ar
    37    10     5   ar
