@<TRIPOS>MOLECULE
*****
 31 35 0 0 0
SMALL
GASTEIGER

@<TRIPOS>ATOM
      1 C          66.0387   93.1052   13.3625 C.ar    1  UNL1        0.0846
      2 C          66.5679   93.4140   14.7316 C.ar    1  UNL1        0.1180
      3 N          65.9890   92.4145   15.6886 N.ar    1  UNL1       -0.2233
      4 C          65.1021   91.4879   14.9109 C.ar    1  UNL1        0.1672
      5 C          64.2705   90.3106   15.3261 C.ar    1  UNL1        0.1361
      6 N          63.4696   89.5603   14.3037 N.ar    1  UNL1       -0.2392
      7 C          63.5002   89.9872   12.8660 C.ar    1  UNL1        0.0989
      8 C          64.3318   91.1644   12.4508 C.ar    1  UNL1        0.1006
      9 N          65.1328   91.9148   13.4733 N.ar    1  UNL1       -0.2861
     10 C          67.0000   95.3549    9.5855 C.ar    1  UNL1        0.0684
     11 C          66.4787   96.0902   10.7845 C.ar    1  UNL1        0.0103
     12 C          66.1583   95.3403   12.0434 C.ar    1  UNL1        0.0022
     13 C          66.3591   93.8551   12.1035 C.ar    1  UNL1        0.0177
     14 C          66.8804   93.1197   10.9045 C.ar    1  UNL1        0.0022
     15 C          67.2008   93.8696    9.6455 C.ar    1  UNL1        0.0103
     16 N          67.6408   96.8548    7.0677 N.1     1  UNL1       -0.1908
     17 C          67.3204   96.1048    8.3266 C.1     1  UNL1        0.1004
     18 C          62.6992   89.2367   11.8436 C.ar    1  UNL1        0.0191
     19 C          62.0494   89.9746   10.7108 C.ar    1  UNL1        0.0017
     20 C          61.2484   89.2241    9.6883 C.ar    1  UNL1        0.0046
     21 C          61.0973   87.7359    9.7987 C.ar    1  UNL1        0.0536
     22 C          61.7472   86.9980   10.9316 C.ar    1  UNL1        0.0046
     23 C          62.5481   87.7485   11.9540 C.ar    1  UNL1        0.0017
     24 C          60.2964   86.9854    8.7764 C.2     1  UNL1        0.2492
     25 O          58.8259   87.2464    8.6364 O.2     1  UNL1       -0.2699
     26 N          60.9659   85.9740    7.8939 N.am    1  UNL1       -0.2709
     27 C          62.4364   85.7131    8.0339 C.3     1  UNL1        0.1258
     28 C          63.1059   84.7016    7.1513 C.3     1  UNL1        0.1637
     29 O          62.3050   83.9512    6.1290 O.3     1  UNL1       -0.3501
     30 C          60.8345   84.2122    5.9890 C.3     1  UNL1        0.1637
     31 C          60.1650   85.2235    6.8715 C.3     1  UNL1        0.1258
@<TRIPOS>BOND
     1    16    17    3
     2    17    10    1
     3    10    11   ar
     4    11    12   ar
     5    12    13   ar
     6    13     1    1
     7     1     2   ar
     8     2     3   ar
     9     3     4   ar
    10     4     5   ar
    11     5     6   ar
    12     6     7   ar
    13     7    18    1
    14    18    19   ar
    15    19    20   ar
    16    20    21   ar
    17    21    24    1
    18    24    25    2
    19    24    26   am
    20    26    27    1
    21    27    28    1
    22    28    29    1
    23    29    30    1
    24    30    31    1
    25    21    22   ar
    26    22    23   ar
    27     7     8   ar
    28     8     9   ar
    29    13    14   ar
    30    14    15   ar
    31    15    10   ar
    32     9     1   ar
    33     9     4   ar
    34    23    18   ar
    35    31    26    1
@<TRIPOS>MOLECULE
*****
 31 35 0 0 0
SMALL
GASTEIGER

@<TRIPOS>ATOM
      1 C          62.9322   85.2396   12.9542 C.ar    1  UNL1        0.0846
      2 C          62.5687   84.1833   13.9553 C.ar    1  UNL1        0.1180
      3 N          62.7985   84.7459   15.3267 N.ar    1  UNL1       -0.2233
      4 C          63.3040   86.1498   15.1732 C.ar    1  UNL1        0.1672
      5 C          63.6998   87.1897   16.1791 C.ar    1  UNL1        0.1361
      6 N          64.1782   88.5347   15.7188 N.ar    1  UNL1       -0.2392
      7 C          64.2608   88.8398   14.2524 C.ar    1  UNL1        0.0989
      8 C          63.8651   87.7999   13.2465 C.ar    1  UNL1        0.1006
      9 N          63.3867   86.4549   13.7069 N.ar    1  UNL1       -0.2861
     10 C          62.7002   84.8337    8.4785 C.ar    1  UNL1        0.0684
     11 C          63.5137   83.8602    9.2787 C.ar    1  UNL1        0.0103
     12 C          63.5911   83.9955   10.7706 C.ar    1  UNL1        0.0022
     13 C          62.8549   85.1043   11.4624 C.ar    1  UNL1        0.0177
     14 C          62.0413   86.0779   10.6621 C.ar    1  UNL1        0.0022
     15 C          61.9639   85.9426    9.1702 C.ar    1  UNL1        0.0103
     16 N          62.5456   84.5631    5.4948 N.1     1  UNL1       -0.1908
     17 C          62.6228   84.6985    6.9866 C.1     1  UNL1        0.1004
     18 C          64.7392   90.1849   13.7921 C.ar    1  UNL1        0.0191
     19 C          65.8564   90.8728   14.5192 C.ar    1  UNL1        0.0017
     20 C          66.3349   92.2179   14.0588 C.ar    1  UNL1        0.0046
     21 C          65.6960   92.8751   12.8714 C.ar    1  UNL1        0.0536
     22 C          64.5788   92.1871   12.1443 C.ar    1  UNL1        0.0046
     23 C          64.1004   90.8421   12.6047 C.ar    1  UNL1        0.0017
     24 C          66.1744   94.2201   12.4110 C.2     1  UNL1        0.2492
     25 O          66.1738   95.3816   13.3602 O.2     1  UNL1       -0.2699
     26 N          66.6533   94.4037   11.0014 N.am    1  UNL1       -0.2709
     27 C          66.6539   93.2422   10.0522 C.3     1  UNL1        0.1258
     28 C          67.1328   93.4258    8.6426 C.3     1  UNL1        0.1637
     29 O          67.6112   94.7708    8.1823 O.3     1  UNL1       -0.3501
     30 C          67.6106   95.9323    9.1314 C.3     1  UNL1        0.1637
     31 C          67.1317   95.7488   10.5410 C.3     1  UNL1        0.1258
@<TRIPOS>BOND
     1    16    17    3
     2    17    10    1
     3    10    11   ar
     4    11    12   ar
     5    12    13   ar
     6    13     1    1
     7     1     2   ar
     8     2     3   ar
     9     3     4   ar
    10     4     5   ar
    11     5     6   ar
    12     6     7   ar
    13     7    18    1
    14    18    19   ar
    15    19    20   ar
    16    20    21   ar
    17    21    24    1
    18    24    25    2
    19    24    26   am
    20    26    27    1
    21    27    28    1
    22    28    29    1
    23    29    30    1
    24    30    31    1
    25    21    22   ar
    26    22    23   ar
    27     7     8   ar
    28     8     9   ar
    29    13    14   ar
    30    14    15   ar
    31    15    10   ar
    32     9     1   ar
    33     9     4   ar
    34    23    18   ar
    35    31    26    1
@<TRIPOS>MOLECULE
*****
 31 35 0 0 0
SMALL
GASTEIGER

@<TRIPOS>ATOM
      1 C          63.1461   85.7855   15.6373 C.ar    1  UNL1        0.0846
      2 C          62.5783   85.2441   16.9157 C.ar    1  UNL1        0.1180
      3 N          62.4394   86.3841   17.8806 N.ar    1  UNL1       -0.2233
      4 C          62.9214   87.6301   17.1985 C.ar    1  UNL1        0.1672
      5 C          63.0190   89.0537   17.6608 C.ar    1  UNL1        0.1361
      6 N          63.5533   90.1074   16.7365 N.ar    1  UNL1       -0.2392
      7 C          63.9901   89.7374   15.3500 C.ar    1  UNL1        0.0989
      8 C          63.8925   88.3138   14.8878 C.ar    1  UNL1        0.1006
      9 N          63.3582   87.2601   15.8120 N.ar    1  UNL1       -0.2861
     10 C          64.0541   83.4039   11.9286 C.ar    1  UNL1        0.0684
     11 C          63.1348   84.5868   11.8540 C.ar    1  UNL1        0.0103
     12 C          62.8321   85.3806   13.0902 C.ar    1  UNL1        0.0022
     13 C          63.4488   84.9917   14.4010 C.ar    1  UNL1        0.0177
     14 C          64.3682   83.8087   14.4757 C.ar    1  UNL1        0.0022
     15 C          64.6708   83.0149   13.2395 C.ar    1  UNL1        0.0103
     16 N          64.6595   81.8164    9.4562 N.1     1  UNL1       -0.1908
     17 C          64.3568   82.6101   10.6924 C.1     1  UNL1        0.1004
     18 C          64.5245   90.7911   14.4258 C.ar    1  UNL1        0.0191
     19 C          63.9150   90.9768   13.0679 C.ar    1  UNL1        0.0017
     20 C          64.4494   92.0305   12.1436 C.ar    1  UNL1        0.0046
     21 C          65.5933   92.8986   12.5774 C.ar    1  UNL1        0.0536
     22 C          66.2027   92.7128   13.9354 C.ar    1  UNL1        0.0046
     23 C          65.6684   91.6591   14.8596 C.ar    1  UNL1        0.0017
     24 C          66.1277   93.9522   11.6532 C.2     1  UNL1        0.2492
     25 O          65.8115   95.3975   11.9009 O.2     1  UNL1       -0.2699
     26 N          66.9782   93.5607   10.4814 N.am    1  UNL1       -0.2709
     27 C          67.2943   92.1155   10.2337 C.3     1  UNL1        0.1258
     28 C          68.1449   91.7239    9.0618 C.3     1  UNL1        0.1637
     29 O          68.6793   92.7776    8.1376 O.3     1  UNL1       -0.3501
     30 C          68.3632   94.2229    8.3853 C.3     1  UNL1        0.1637
     31 C          67.5126   94.6144    9.5572 C.3     1  UNL1        0.1258
@<TRIPOS>BOND
     1    16    17    3
     2    17    10    1
     3    10    11   ar
     4    11    12   ar
     5    12    13   ar
     6    13     1    1
     7     1     2   ar
     8     2     3   ar
     9     3     4   ar
    10     4     5   ar
    11     5     6   ar
    12     6     7   ar
    13     7    18    1
    14    18    19   ar
    15    19    20   ar
    16    20    21   ar
    17    21    24    1
    18    24    25    2
    19    24    26   am
    20    26    27    1
    21    27    28    1
    22    28    29    1
    23    29    30    1
    24    30    31    1
    25    21    22   ar
    26    22    23   ar
    27     7     8   ar
    28     8     9   ar
    29    13    14   ar
    30    14    15   ar
    31    15    10   ar
    32     9     1   ar
    33     9     4   ar
    34    23    18   ar
    35    31    26    1
@<TRIPOS>MOLECULE
*****
 31 35 0 0 0
SMALL
GASTEIGER

@<TRIPOS>ATOM
      1 C          63.1431   86.4293   15.6964 C.ar    1  UNL1        0.0846
      2 C          62.4524   86.2086   17.0095 C.ar    1  UNL1        0.1180
      3 N          62.4499   87.5095   17.7562 N.ar    1  UNL1       -0.2233
      4 C          63.1390   88.5342   16.9046 C.ar    1  UNL1        0.1672
      5 C          63.4317   89.9889   17.1239 C.ar    1  UNL1        0.1361
      6 N          64.1528   90.7759   16.0701 N.ar    1  UNL1       -0.2392
      7 C          64.5812   90.1083   14.7970 C.ar    1  UNL1        0.0989
      8 C          64.2885   88.6536   14.5777 C.ar    1  UNL1        0.1006
      9 N          63.5674   87.8665   15.6315 N.ar    1  UNL1       -0.2861
     10 C          63.8227   83.3246   12.5106 C.ar    1  UNL1        0.0684
     11 C          64.2865   83.0725   13.9146 C.ar    1  UNL1        0.0103
     12 C          64.0599   84.1074   14.9765 C.ar    1  UNL1        0.0022
     13 C          63.3696   85.3944   14.6345 C.ar    1  UNL1        0.0177
     14 C          62.9058   85.6465   13.2304 C.ar    1  UNL1        0.0022
     15 C          63.1324   84.6116   12.1685 C.ar    1  UNL1        0.0103
     16 N          64.2758   81.2547   10.3869 N.1     1  UNL1       -0.1908
     17 C          64.0493   82.2896   11.4487 C.1     1  UNL1        0.1004
     18 C          65.3023   90.8954   13.7432 C.ar    1  UNL1        0.0191
     19 C          64.6092   91.2392   12.4581 C.ar    1  UNL1        0.0017
     20 C          65.3304   92.0263   11.4043 C.ar    1  UNL1        0.0046
     21 C          66.7446   92.4697   11.6356 C.ar    1  UNL1        0.0536
     22 C          67.4376   92.1259   12.9208 C.ar    1  UNL1        0.0046
     23 C          66.7165   91.3388   13.9745 C.ar    1  UNL1        0.0017
     24 C          67.4657   93.2568   10.5819 C.2     1  UNL1        0.2492
     25 O          68.8413   92.8451   10.1482 O.2     1  UNL1       -0.2699
     26 N          66.8112   94.4556    9.9619 N.am    1  UNL1       -0.2709
     27 C          65.4355   94.8673   10.3957 C.3     1  UNL1        0.1258
     28 C          64.7810   96.0662    9.7756 C.3     1  UNL1        0.1637
     29 O          65.5022   96.8533    8.7219 O.3     1  UNL1       -0.3501
     30 C          66.8778   96.4415    8.2881 C.3     1  UNL1        0.1637
     31 C          67.5323   95.2427    8.9081 C.3     1  UNL1        0.1258
@<TRIPOS>BOND
     1    16    17    3
     2    17    10    1
     3    10    11   ar
     4    11    12   ar
     5    12    13   ar
     6    13     1    1
     7     1     2   ar
     8     2     3   ar
     9     3     4   ar
    10     4     5   ar
    11     5     6   ar
    12     6     7   ar
    13     7    18    1
    14    18    19   ar
    15    19    20   ar
    16    20    21   ar
    17    21    24    1
    18    24    25    2
    19    24    26   am
    20    26    27    1
    21    27    28    1
    22    28    29    1
    23    29    30    1
    24    30    31    1
    25    21    22   ar
    26    22    23   ar
    27     7     8   ar
    28     8     9   ar
    29    13    14   ar
    30    14    15   ar
    31    15    10   ar
    32     9     1   ar
    33     9     4   ar
    34    23    18   ar
    35    31    26    1
@<TRIPOS>MOLECULE
*****
 31 35 0 0 0
SMALL
GASTEIGER

@<TRIPOS>ATOM
      1 C          61.6127   85.8194   10.0908 C.ar    1  UNL1        0.0846
      2 C          60.7280   85.6751    8.8881 C.ar    1  UNL1        0.1180
      3 N          60.4223   87.0492    8.3700 N.ar    1  UNL1       -0.2233
      4 C          61.1180   88.0428    9.2526 C.ar    1  UNL1        0.1672
      5 C          61.1766   89.5413    9.2252 C.ar    1  UNL1        0.1361
      6 N          61.9710   90.2798   10.2613 N.ar    1  UNL1       -0.2392
      7 C          62.7067   89.5198   11.3248 C.ar    1  UNL1        0.0989
      8 C          62.6481   88.0212   11.3522 C.ar    1  UNL1        0.1006
      9 N          61.8537   87.2827   10.3161 N.ar    1  UNL1       -0.2861
     10 C          63.2553   82.4534   12.5852 C.ar    1  UNL1        0.0684
     11 C          62.6539   83.6557   13.2505 C.ar    1  UNL1        0.0103
     12 C          62.1063   84.7777   12.4191 C.ar    1  UNL1        0.0022
     13 C          62.1602   84.6974   10.9223 C.ar    1  UNL1        0.0177
     14 C          62.7617   83.4951   10.2568 C.ar    1  UNL1        0.0022
     15 C          63.3092   82.3731   11.0883 C.ar    1  UNL1        0.0103
     16 N          64.3504   80.2095   14.2482 N.1     1  UNL1       -0.1908
     17 C          63.8028   81.3314   13.4166 C.1     1  UNL1        0.1004
     18 C          63.5011   90.2583   12.3609 C.ar    1  UNL1        0.0191
     19 C          63.5357   89.7601   13.7753 C.ar    1  UNL1        0.0017
     20 C          64.3301   90.4987   14.8114 C.ar    1  UNL1        0.0046
     21 C          65.0898   91.7355   14.4331 C.ar    1  UNL1        0.0536
     22 C          65.0552   92.2337   13.0186 C.ar    1  UNL1        0.0046
     23 C          64.2608   91.4951   11.9826 C.ar    1  UNL1        0.0017
     24 C          65.8842   92.4741   15.4692 C.2     1  UNL1        0.2492
     25 O          65.2113   92.9788   16.7111 O.2     1  UNL1       -0.2699
     26 N          67.3514   92.7079   15.2633 N.am    1  UNL1       -0.2709
     27 C          68.0243   92.2032   14.0213 C.3     1  UNL1        0.1258
     28 C          69.4917   92.4371   13.8154 C.3     1  UNL1        0.1637
     29 O          70.2860   93.1757   14.8514 O.3     1  UNL1       -0.3501
     30 C          69.6131   93.6804   16.0934 C.3     1  UNL1        0.1637
     31 C          68.1459   93.4465   16.2993 C.3     1  UNL1        0.1258
@<TRIPOS>BOND
     1    16    17    3
     2    17    10    1
     3    10    11   ar
     4    11    12   ar
     5    12    13   ar
     6    13     1    1
     7     1     2   ar
     8     2     3   ar
     9     3     4   ar
    10     4     5   ar
    11     5     6   ar
    12     6     7   ar
    13     7    18    1
    14    18    19   ar
    15    19    20   ar
    16    20    21   ar
    17    21    24    1
    18    24    25    2
    19    24    26   am
    20    26    27    1
    21    27    28    1
    22    28    29    1
    23    29    30    1
    24    30    31    1
    25    21    22   ar
    26    22    23   ar
    27     7     8   ar
    28     8     9   ar
    29    13    14   ar
    30    14    15   ar
    31    15    10   ar
    32     9     1   ar
    33     9     4   ar
    34    23    18   ar
    35    31    26    1
@<TRIPOS>MOLECULE
*****
 31 35 0 0 0
SMALL
GASTEIGER

@<TRIPOS>ATOM
      1 C          61.2637   86.2452    9.4365 C.ar    1  UNL1        0.0846
      2 C          60.1308   85.9314    8.5048 C.ar    1  UNL1        0.1180
      3 N          59.5985   87.2275    7.9693 N.ar    1  UNL1       -0.2233
      4 C          60.4025   88.3423    8.5699 C.ar    1  UNL1        0.1672
      5 C          60.3304   89.8318    8.4083 C.ar    1  UNL1        0.1361
      6 N          61.2875   90.7142    9.1535 N.ar    1  UNL1       -0.2392
      7 C          62.3167   90.1071   10.0603 C.ar    1  UNL1        0.0989
      8 C          62.3888   88.6176   10.2219 C.ar    1  UNL1        0.1006
      9 N          61.4317   87.7352    9.4767 N.ar    1  UNL1       -0.2861
     10 C          63.7264   83.2435   11.7114 C.ar    1  UNL1        0.0684
     11 C          63.8670   83.3546   10.2222 C.ar    1  UNL1        0.0103
     12 C          63.0461   84.3551    9.4639 C.ar    1  UNL1        0.0022
     13 C          62.0846   85.2446   10.1947 C.ar    1  UNL1        0.0177
     14 C          61.9441   85.1336   11.6841 C.ar    1  UNL1        0.0022
     15 C          62.7650   84.1331   12.4424 C.ar    1  UNL1        0.0103
     16 N          65.3681   81.2424   13.2280 N.1     1  UNL1       -0.1908
     17 C          64.5473   82.2430   12.4697 C.1     1  UNL1        0.1004
     18 C          63.2738   90.9896   10.8054 C.ar    1  UNL1        0.0191
     19 C          63.4023   90.8674   12.2949 C.ar    1  UNL1        0.0017
     20 C          64.3594   91.7498   13.0401 C.ar    1  UNL1        0.0046
     21 C          65.1880   92.7545   12.2957 C.ar    1  UNL1        0.0536
     22 C          65.0595   92.8767   10.8062 C.ar    1  UNL1        0.0046
     23 C          64.1024   91.9942   10.0611 C.ar    1  UNL1        0.0017
     24 C          66.1451   93.6369   13.0408 C.2     1  UNL1        0.2492
     25 O          66.2599   95.0892   12.6833 O.2     1  UNL1       -0.2699
     26 N          66.9874   93.0671   14.1434 N.am    1  UNL1       -0.2709
     27 C          66.8727   91.6149   14.5009 C.3     1  UNL1        0.1258
     28 C          67.7151   91.0451   15.6036 C.3     1  UNL1        0.1637
     29 O          68.6722   91.9276   16.3487 O.3     1  UNL1       -0.3501
     30 C          68.7869   93.3798   15.9912 C.3     1  UNL1        0.1637
     31 C          67.9446   93.9496   14.8886 C.3     1  UNL1        0.1258
@<TRIPOS>BOND
     1    16    17    3
     2    17    10    1
     3    10    11   ar
     4    11    12   ar
     5    12    13   ar
     6    13     1    1
     7     1     2   ar
     8     2     3   ar
     9     3     4   ar
    10     4     5   ar
    11     5     6   ar
    12     6     7   ar
    13     7    18    1
    14    18    19   ar
    15    19    20   ar
    16    20    21   ar
    17    21    24    1
    18    24    25    2
    19    24    26   am
    20    26    27    1
    21    27    28    1
    22    28    29    1
    23    29    30    1
    24    30    31    1
    25    21    22   ar
    26    22    23   ar
    27     7     8   ar
    28     8     9   ar
    29    13    14   ar
    30    14    15   ar
    31    15    10   ar
    32     9     1   ar
    33     9     4   ar
    34    23    18   ar
    35    31    26    1
@<TRIPOS>MOLECULE
*****
 31 35 0 0 0
SMALL
GASTEIGER

@<TRIPOS>ATOM
      1 C          63.8183   86.3659   13.7298 C.ar    1  UNL1        0.0846
      2 C          64.4470   85.0981   14.2273 C.ar    1  UNL1        0.1180
      3 N          64.1471   84.0124   13.2367 N.ar    1  UNL1       -0.2233
      4 C          63.3331   84.6091   12.1270 C.ar    1  UNL1        0.1672
      5 C          62.7507   84.0160   10.8785 C.ar    1  UNL1        0.1361
      6 N          61.9651   84.8774    9.9347 N.ar    1  UNL1       -0.2392
      7 C          61.7619   86.3320   10.2395 C.ar    1  UNL1        0.0989
      8 C          62.3443   86.9252   11.4880 C.ar    1  UNL1        0.1006
      9 N          63.1299   86.0637   12.4318 N.ar    1  UNL1       -0.2861
     10 C          63.9708   90.3726   15.7727 C.ar    1  UNL1        0.0684
     11 C          63.5376   89.1569   16.5372 C.ar    1  UNL1        0.0103
     12 C          63.4868   87.8214   15.8562 C.ar    1  UNL1        0.0022
     13 C          63.8691   87.7014   14.4108 C.ar    1  UNL1        0.0177
     14 C          64.3023   88.9172   13.6462 C.ar    1  UNL1        0.0022
     15 C          64.3532   90.2527   14.3272 C.ar    1  UNL1        0.0103
     16 N          64.0725   93.0436   17.1347 N.1     1  UNL1       -0.1908
     17 C          64.0216   91.7082   16.4537 C.1     1  UNL1        0.1004
     18 C          60.9763   87.1934    9.2956 C.ar    1  UNL1        0.0191
     19 C          60.9735   88.6837    9.4661 C.ar    1  UNL1        0.0017
     20 C          60.1879   89.5451    8.5222 C.ar    1  UNL1        0.0046
     21 C          59.4050   88.9162    7.4080 C.ar    1  UNL1        0.0536
     22 C          59.4078   87.4259    7.2375 C.ar    1  UNL1        0.0046
     23 C          60.1934   86.5645    8.1813 C.ar    1  UNL1        0.0017
     24 C          58.6194   89.7776    6.4641 C.2     1  UNL1        0.2492
     25 O          57.1207   89.7849    6.5263 O.2     1  UNL1       -0.2699
     26 N          59.3325   90.6316    5.4581 N.am    1  UNL1       -0.2709
     27 C          60.8312   90.6243    5.3960 C.3     1  UNL1        0.1258
     28 C          61.5443   91.4785    4.3899 C.3     1  UNL1        0.1637
     29 O          60.7587   92.3398    3.4461 O.3     1  UNL1       -0.3501
     30 C          59.2600   92.3471    3.5083 C.3     1  UNL1        0.1637
     31 C          58.5469   91.4930    4.5142 C.3     1  UNL1        0.1258
@<TRIPOS>BOND
     1    16    17    3
     2    17    10    1
     3    10    11   ar
     4    11    12   ar
     5    12    13   ar
     6    13     1    1
     7     1     2   ar
     8     2     3   ar
     9     3     4   ar
    10     4     5   ar
    11     5     6   ar
    12     6     7   ar
    13     7    18    1
    14    18    19   ar
    15    19    20   ar
    16    20    21   ar
    17    21    24    1
    18    24    25    2
    19    24    26   am
    20    26    27    1
    21    27    28    1
    22    28    29    1
    23    29    30    1
    24    30    31    1
    25    21    22   ar
    26    22    23   ar
    27     7     8   ar
    28     8     9   ar
    29    13    14   ar
    30    14    15   ar
    31    15    10   ar
    32     9     1   ar
    33     9     4   ar
    34    23    18   ar
    35    31    26    1
@<TRIPOS>MOLECULE
*****
 31 35 0 0 0
SMALL
GASTEIGER

@<TRIPOS>ATOM
      1 C          61.3999   88.4013   10.2393 C.ar    1  UNL1        0.0846
      2 C          61.0043   87.0798   10.8286 C.ar    1  UNL1        0.1180
      3 N          60.0450   86.4194    9.8834 N.ar    1  UNL1       -0.2233
      4 C          59.8476   87.3326    8.7099 C.ar    1  UNL1        0.1672
      5 C          59.0136   87.2071    7.4695 C.ar    1  UNL1        0.1361
      6 N          59.0170   88.3064    6.4490 N.ar    1  UNL1       -0.2392
      7 C          59.8544   89.5313    6.6690 C.ar    1  UNL1        0.0989
      8 C          60.6884   89.6569    7.9094 C.ar    1  UNL1        0.1006
      9 N          60.6850   88.5575    8.9298 N.ar    1  UNL1       -0.2861
     10 C          64.2337   91.3749   12.0770 C.ar    1  UNL1        0.0684
     11 C          63.7051   91.6000   10.6914 C.ar    1  UNL1        0.0103
     12 C          62.7604   90.6088   10.0789 C.ar    1  UNL1        0.0022
     13 C          62.3445   89.3925   10.8518 C.ar    1  UNL1        0.0177
     14 C          62.8732   89.1674   12.2375 C.ar    1  UNL1        0.0022
     15 C          63.8178   90.1586   12.8500 C.ar    1  UNL1        0.0103
     16 N          66.1230   93.3573   13.3020 N.1     1  UNL1       -0.1908
     17 C          65.1783   92.3661   12.6895 C.1     1  UNL1        0.1004
     18 C          59.8578   90.6307    5.6485 C.ar    1  UNL1        0.0191
     19 C          61.1268   90.9842    4.9311 C.ar    1  UNL1        0.0017
     20 C          61.1302   92.0836    3.9106 C.ar    1  UNL1        0.0046
     21 C          59.8645   92.8295    3.6075 C.ar    1  UNL1        0.0536
     22 C          58.5955   92.4759    4.3249 C.ar    1  UNL1        0.0046
     23 C          58.5922   91.3765    5.3454 C.ar    1  UNL1        0.0017
     24 C          59.8679   93.9288    2.5870 C.2     1  UNL1        0.2492
     25 O          59.9931   95.3580    3.0247 O.2     1  UNL1       -0.2699
     26 N          59.7460   93.5989    1.1289 N.am    1  UNL1       -0.2709
     27 C          59.6207   92.1696    0.6912 C.3     1  UNL1        0.1258
     28 C          59.4988   91.8398   -0.7671 C.3     1  UNL1        0.1637
     29 O          59.5022   92.9391   -1.7875 O.3     1  UNL1       -0.3501
     30 C          59.6274   94.3683   -1.3499 C.3     1  UNL1        0.1637
     31 C          59.7493   94.6982    0.1083 C.3     1  UNL1        0.1258
@<TRIPOS>BOND
     1    16    17    3
     2    17    10    1
     3    10    11   ar
     4    11    12   ar
     5    12    13   ar
     6    13     1    1
     7     1     2   ar
     8     2     3   ar
     9     3     4   ar
    10     4     5   ar
    11     5     6   ar
    12     6     7   ar
    13     7    18    1
    14    18    19   ar
    15    19    20   ar
    16    20    21   ar
    17    21    24    1
    18    24    25    2
    19    24    26   am
    20    26    27    1
    21    27    28    1
    22    28    29    1
    23    29    30    1
    24    30    31    1
    25    21    22   ar
    26    22    23   ar
    27     7     8   ar
    28     8     9   ar
    29    13    14   ar
    30    14    15   ar
    31    15    10   ar
    32     9     1   ar
    33     9     4   ar
    34    23    18   ar
    35    31    26    1
@<TRIPOS>MOLECULE
*****
 31 35 0 0 0
SMALL
GASTEIGER

@<TRIPOS>ATOM
      1 C          61.3694   88.9265   10.4459 C.ar    1  UNL1        0.0846
      2 C          60.8410   87.7471   11.2072 C.ar    1  UNL1        0.1180
      3 N          59.8131   87.0665   10.3526 N.ar    1  UNL1       -0.2233
      4 C          59.7064   87.8254    9.0631 C.ar    1  UNL1        0.1672
      5 C          58.8576   87.6181    7.8439 C.ar    1  UNL1        0.1361
      6 N          58.9707   88.5604    6.6823 N.ar    1  UNL1       -0.2392
      7 C          59.9325   89.7100    6.7400 C.ar    1  UNL1        0.0989
      8 C          60.7813   89.9172    7.9592 C.ar    1  UNL1        0.1006
      9 N          60.6682   88.9749    9.1208 N.ar    1  UNL1       -0.2861
     10 C          64.5076   91.8131   11.8849 C.ar    1  UNL1        0.0684
     11 C          64.0054   91.8932   10.4737 C.ar    1  UNL1        0.0103
     12 C          62.9593   90.9310    9.9941 C.ar    1  UNL1        0.0022
     13 C          62.4155   89.8887   10.9255 C.ar    1  UNL1        0.0177
     14 C          62.9177   89.8086   12.3368 C.ar    1  UNL1        0.0022
     15 C          63.9637   90.7708   12.8164 C.ar    1  UNL1        0.0103
     16 N          66.5995   93.7375   12.8441 N.1     1  UNL1       -0.1908
     17 C          65.5536   92.7752   12.3645 C.1     1  UNL1        0.1004
     18 C          60.0456   90.6523    5.5784 C.ar    1  UNL1        0.0191
     19 C          58.8472   91.4332    5.1267 C.ar    1  UNL1        0.0017
     20 C          58.9603   92.3755    3.9651 C.ar    1  UNL1        0.0046
     21 C          60.2718   92.5369    3.2552 C.ar    1  UNL1        0.0536
     22 C          61.4702   91.7559    3.7069 C.ar    1  UNL1        0.0046
     23 C          61.3571   90.8137    4.8685 C.ar    1  UNL1        0.0017
     24 C          60.3848   93.4792    2.0936 C.2     1  UNL1        0.2492
     25 O          59.1529   94.1150    1.5210 O.2     1  UNL1       -0.2699
     26 N          61.7299   93.7855    1.5047 N.am    1  UNL1       -0.2709
     27 C          62.9619   93.1497    2.0773 C.3     1  UNL1        0.1258
     28 C          64.3070   93.4561    1.4883 C.3     1  UNL1        0.1637
     29 O          64.4201   94.3983    0.3267 O.3     1  UNL1       -0.3501
     30 C          63.1881   95.0342   -0.2459 C.3     1  UNL1        0.1637
     31 C          61.8431   94.7278    0.3430 C.3     1  UNL1        0.1258
@<TRIPOS>BOND
     1    16    17    3
     2    17    10    1
     3    10    11   ar
     4    11    12   ar
     5    12    13   ar
     6    13     1    1
     7     1     2   ar
     8     2     3   ar
     9     3     4   ar
    10     4     5   ar
    11     5     6   ar
    12     6     7   ar
    13     7    18    1
    14    18    19   ar
    15    19    20   ar
    16    20    21   ar
    17    21    24    1
    18    24    25    2
    19    24    26   am
    20    26    27    1
    21    27    28    1
    22    28    29    1
    23    29    30    1
    24    30    31    1
    25    21    22   ar
    26    22    23   ar
    27     7     8   ar
    28     8     9   ar
    29    13    14   ar
    30    14    15   ar
    31    15    10   ar
    32     9     1   ar
    33     9     4   ar
    34    23    18   ar
    35    31    26    1
