@<TRIPOS>MOLECULE
*****
 40 43 0 0 0
SMALL
GASTEIGER

@<TRIPOS>ATOM
      1 C          61.8316   89.9193   11.6423 C.3     1  UNL1        0.1011
      2 C          60.4472   90.4920   11.5683 C.3     1  UNL1        0.0265
      3 N          63.0187   90.8335   11.7106 N.am    1  UNL1       -0.2438
      4 C          63.5610   91.4535   10.4570 C.3     1  UNL1        0.1009
      5 C          64.7483   92.3678   10.5254 C.3     1  UNL1        0.0662
      6 C          65.3931   92.6621   11.8473 C.3     1  UNL1        0.1600
      7 O          64.8508   92.0421   13.1009 O.3     1  UNL1       -0.4374
      8 C          63.6636   91.1279   13.0326 C.2     1  UNL1        0.4051
      9 O          63.1213   90.5079   14.2862 O.2     1  UNL1       -0.2262
     10 C          66.2644   93.4833   10.9439 C.ar    1  UNL1        0.0138
     11 C          67.2002   92.8070    9.9863 C.ar    1  UNL1       -0.0010
     12 C          68.0715   93.6283    9.0829 C.ar    1  UNL1       -0.0002
     13 C          68.0072   95.1259    9.1369 C.ar    1  UNL1       -0.0000
     14 C          67.0715   95.8023   10.0945 C.ar    1  UNL1       -0.0002
     15 C          66.2001   94.9811   10.9980 C.ar    1  UNL1       -0.0010
     16 C          66.3406   93.2416   12.8555 C.3     1  UNL1        0.0714
     17 C          66.9282   92.3661   13.9224 C.3     1  UNL1        0.0922
     18 C          67.7200   91.6302   12.8824 C.3     1  UNL1        0.0294
     19 C          66.1364   93.1020   14.9624 C.3     1  UNL1        0.0294
     20 O          67.5158   91.4905   14.9893 O.3     1  UNL1       -0.3866
     21 H          68.1252   90.8531   14.5852 H       1  UNL1        0.2102
     22 C          62.4231   85.4583   11.6594 C.ar    1  UNL1        0.0002
     23 C          61.3492   86.0692   10.8089 C.ar    1  UNL1       -0.0003
     24 C          61.1520   87.5562   10.8032 C.ar    1  UNL1       -0.0027
     25 C          62.0288   88.4323   11.6480 C.ar    1  UNL1       -0.0042
     26 C          63.1027   87.8214   12.4986 C.ar    1  UNL1       -0.0027
     27 C          63.2999   86.3344   12.5043 C.ar    1  UNL1       -0.0003
     28 N          63.0147   80.9974   11.6766 N.ar    1  UNL1       -0.2941
     29 C          63.6109   81.8289   10.5797 C.ar    1  UNL1        0.0783
     30 C          63.4137   83.3158   10.5740 C.ar    1  UNL1        0.0189
     31 C          62.6203   83.9714   11.6652 C.ar    1  UNL1        0.0062
     32 C          62.0241   83.1399   12.7620 C.ar    1  UNL1        0.0608
     33 C          62.2213   81.6530   12.7677 C.ar    1  UNL1        0.2610
     34 O          61.6250   80.8215   13.8647 O.2     1  UNL1       -0.2670
     35 C          63.2119   79.5105   11.6823 C.3     1  UNL1        0.1115
     36 C          62.8283   78.6984   10.4809 C.3     1  UNL1        0.0523
     37 C          62.4759   79.3835    9.1939 C.3     1  UNL1        0.0046
     38 C          62.7970   77.2011   10.5665 C.3     1  UNL1        0.1441
     39 C          64.7269   76.5324    8.9608 C.3     1  UNL1        0.1741
     40 O          64.0392   76.4079   10.2881 O.3     1  UNL1       -0.3510
@<TRIPOS>BOND
     1    39    40    1
     2    40    38    1
     3    38    36    1
     4    36    37    1
     5    36    35    1
     6    35    28    1
     7    28    29   ar
     8    29    30   ar
     9    30    31   ar
    10    31    22    1
    11    22    23   ar
    12    23    24   ar
    13    24    25   ar
    14    25     1    1
    15     1     2    1
    16     1     3    1
    17     3     4    1
    18     4     5    1
    19     5     6    1
    20     6    16    1
    21    16    17    1
    22    17    18    1
    23    17    19    1
    24    17    20    1
    25     6    10    1
    26    10    11   ar
    27    11    12   ar
    28    12    13   ar
    29    13    14   ar
    30    14    15   ar
    31     6     7    1
    32     7     8    1
    33     8     9    2
    34    25    26   ar
    35    26    27   ar
    36    31    32   ar
    37    32    33   ar
    38    33    34    2
    39    33    28   ar
    40    27    22   ar
    41     8     3   am
    42    15    10   ar
    43    20    21    1
@<TRIPOS>MOLECULE
*****
 40 43 0 0 0
SMALL
GASTEIGER

@<TRIPOS>ATOM
      1 C          62.2877   89.7393   11.5823 C.3     1  UNL1        0.1011
      2 C          60.9914   90.3936   11.2062 C.3     1  UNL1        0.0265
      3 N          63.4764   90.5810   11.9408 N.am    1  UNL1       -0.2438
      4 C          64.1653   90.3834   13.2585 C.3     1  UNL1        0.1009
      5 C          65.3540   91.2252   13.6170 C.3     1  UNL1        0.0662
      6 C          65.8538   92.2645   12.6578 C.3     1  UNL1        0.1600
      7 O          65.1649   92.4620   11.3401 O.3     1  UNL1       -0.4374
      8 C          63.9762   91.6203   10.9816 C.2     1  UNL1        0.4051
      9 O          63.2873   91.8179    9.6638 O.2     1  UNL1       -0.2262
     10 C          66.8345   92.4502   13.7774 C.ar    1  UNL1        0.0138
     11 C          68.2865   92.1418   13.5616 C.ar    1  UNL1       -0.0010
     12 C          69.2672   92.3276   14.6812 C.ar    1  UNL1       -0.0002
     13 C          68.7960   92.8218   16.0167 C.ar    1  UNL1       -0.0000
     14 C          67.3441   93.1303   16.2327 C.ar    1  UNL1       -0.0002
     15 C          66.3632   92.9445   15.1130 C.ar    1  UNL1       -0.0010
     16 C          66.6941   93.3683   12.0874 C.3     1  UNL1        0.0714
     17 C          66.6028   93.7028   10.6280 C.3     1  UNL1        0.0922
     18 C          65.8244   94.9412   10.9606 C.3     1  UNL1        0.0294
     19 C          67.3812   92.4644   10.2954 C.3     1  UNL1        0.0294
     20 O          66.5115   94.0373    9.1686 O.3     1  UNL1       -0.3866
     21 H          66.0173   94.8644    9.0568 H       1  UNL1        0.2102
     22 C          62.6106   85.2512   11.6350 C.ar    1  UNL1        0.0002
     23 C          61.8532   85.9358   10.5360 C.ar    1  UNL1       -0.0003
     24 C          61.7456   87.4318   10.5185 C.ar    1  UNL1       -0.0027
     25 C          62.3953   88.2433   11.5999 C.ar    1  UNL1       -0.0042
     26 C          63.1527   87.5586   12.6988 C.ar    1  UNL1       -0.0027
     27 C          63.2603   86.0626   12.7163 C.ar    1  UNL1       -0.0003
     28 N          62.9334   80.7631   11.6876 N.ar    1  UNL1       -0.2941
     29 C          63.5393   81.5455   10.5603 C.ar    1  UNL1        0.0783
     30 C          63.4317   83.0415   10.5428 C.ar    1  UNL1        0.0189
     31 C          62.7182   83.7552   11.6525 C.ar    1  UNL1        0.0062
     32 C          62.1123   82.9728   12.7798 C.ar    1  UNL1        0.0608
     33 C          62.2199   81.4768   12.7973 C.ar    1  UNL1        0.2610
     34 O          61.6140   80.6944   13.9247 O.2     1  UNL1       -0.2670
     35 C          63.0410   79.2671   11.7052 C.3     1  UNL1        0.1115
     36 C          62.7781   78.4815   10.4547 C.3     1  UNL1        0.0523
     37 C          62.4892   79.1952    9.1674 C.3     1  UNL1        0.0046
     38 C          62.8041   76.9821   10.4915 C.3     1  UNL1        0.1441
     39 C          64.8504   76.5062    8.9630 C.3     1  UNL1        0.1741
     40 O          64.0848   76.2475   10.2268 O.3     1  UNL1       -0.3510
@<TRIPOS>BOND
     1    39    40    1
     2    40    38    1
     3    38    36    1
     4    36    37    1
     5    36    35    1
     6    35    28    1
     7    28    29   ar
     8    29    30   ar
     9    30    31   ar
    10    31    22    1
    11    22    23   ar
    12    23    24   ar
    13    24    25   ar
    14    25     1    1
    15     1     2    1
    16     1     3    1
    17     3     4    1
    18     4     5    1
    19     5     6    1
    20     6    16    1
    21    16    17    1
    22    17    18    1
    23    17    19    1
    24    17    20    1
    25     6    10    1
    26    10    11   ar
    27    11    12   ar
    28    12    13   ar
    29    13    14   ar
    30    14    15   ar
    31     6     7    1
    32     7     8    1
    33     8     9    2
    34    25    26   ar
    35    26    27   ar
    36    31    32   ar
    37    32    33   ar
    38    33    34    2
    39    33    28   ar
    40    27    22   ar
    41     8     3   am
    42    15    10   ar
    43    20    21    1
@<TRIPOS>MOLECULE
*****
 40 43 0 0 0
SMALL
GASTEIGER

@<TRIPOS>ATOM
      1 C          62.0235   90.4079   11.4063 C.3     1  UNL1        0.1011
      2 C          60.6475   90.9244   11.1065 C.3     1  UNL1        0.0265
      3 N          63.1862   91.3544   11.4527 N.am    1  UNL1       -0.2438
      4 C          63.6397   92.0472   10.2019 C.3     1  UNL1        0.1009
      5 C          64.8025   92.9938   10.2484 C.3     1  UNL1        0.0662
      6 C          65.5117   93.2474   11.5455 C.3     1  UNL1        0.1600
      7 O          65.0583   92.5546   12.7962 O.3     1  UNL1       -0.4374
      8 C          63.8955   91.6081   12.7499 C.2     1  UNL1        0.4051
      9 O          63.4421   90.9153   14.0006 O.2     1  UNL1       -0.2262
     10 C          66.3075   94.1354   10.6355 C.ar    1  UNL1        0.0138
     11 C          67.1179   93.5372    9.5241 C.ar    1  UNL1       -0.0010
     12 C          67.9136   94.4252    8.6141 C.ar    1  UNL1       -0.0002
     13 C          67.8990   95.9116    8.8155 C.ar    1  UNL1       -0.0000
     14 C          67.0886   96.5099    9.9268 C.ar    1  UNL1       -0.0002
     15 C          66.2928   95.6219   10.8369 C.ar    1  UNL1       -0.0010
     16 C          66.4974   93.8095   12.5266 C.3     1  UNL1        0.0714
     17 C          67.1059   92.9210   13.5708 C.3     1  UNL1        0.0922
     18 C          66.5658   93.8157   14.6469 C.3     1  UNL1        0.0294
     19 C          67.6461   92.0263   12.4948 C.3     1  UNL1        0.0294
     20 O          67.7145   92.0326   14.6150 O.3     1  UNL1       -0.3866
     21 H          67.5164   92.3866   15.4961 H       1  UNL1        0.2102
     22 C          62.6632   86.0190   12.1667 C.ar    1  UNL1        0.0002
     23 C          61.5930   86.4673   11.2160 C.ar    1  UNL1       -0.0003
     24 C          61.3798   87.9303   10.9626 C.ar    1  UNL1       -0.0027
     25 C          62.2367   88.9450   11.6598 C.ar    1  UNL1       -0.0042
     26 C          63.3068   88.4967   12.6104 C.ar    1  UNL1       -0.0027
     27 C          63.5201   87.0337   12.8639 C.ar    1  UNL1       -0.0003
     28 N          63.3028   81.6301   12.9271 N.ar    1  UNL1       -0.2941
     29 C          63.1144   82.5713   14.0797 C.ar    1  UNL1        0.0783
     30 C          62.9011   84.0343   13.8262 C.ar    1  UNL1        0.0189
     31 C          62.8764   84.5560   12.4202 C.ar    1  UNL1        0.0062
     32 C          63.0649   83.6148   11.2675 C.ar    1  UNL1        0.0608
     33 C          63.2781   82.1519   11.5210 C.ar    1  UNL1        0.2610
     34 O          63.4666   81.2106   10.3683 O.2     1  UNL1       -0.2670
     35 C          63.5161   80.1671   13.1805 C.3     1  UNL1        0.1115
     36 C          62.3921   79.1972   12.9664 C.3     1  UNL1        0.0523
     37 C          62.4117   78.2758   11.7830 C.3     1  UNL1        0.0046
     38 C          61.2483   79.1487   13.9358 C.3     1  UNL1        0.1441
     39 C          58.8836   80.1171   14.4054 C.3     1  UNL1        0.1741
     40 O          60.3312   80.3277   14.0732 O.3     1  UNL1       -0.3510
@<TRIPOS>BOND
     1    39    40    1
     2    40    38    1
     3    38    36    1
     4    36    37    1
     5    36    35    1
     6    35    28    1
     7    28    29   ar
     8    29    30   ar
     9    30    31   ar
    10    31    22    1
    11    22    23   ar
    12    23    24   ar
    13    24    25   ar
    14    25     1    1
    15     1     2    1
    16     1     3    1
    17     3     4    1
    18     4     5    1
    19     5     6    1
    20     6    16    1
    21    16    17    1
    22    17    18    1
    23    17    19    1
    24    17    20    1
    25     6    10    1
    26    10    11   ar
    27    11    12   ar
    28    12    13   ar
    29    13    14   ar
    30    14    15   ar
    31     6     7    1
    32     7     8    1
    33     8     9    2
    34    25    26   ar
    35    26    27   ar
    36    31    32   ar
    37    32    33   ar
    38    33    34    2
    39    33    28   ar
    40    27    22   ar
    41     8     3   am
    42    15    10   ar
    43    20    21    1
@<TRIPOS>MOLECULE
*****
 40 43 0 0 0
SMALL
GASTEIGER

@<TRIPOS>ATOM
      1 C          58.5752   90.1331    6.0423 C.3     1  UNL1        0.1011
      2 C          57.0834   89.9998    5.9621 C.3     1  UNL1        0.0265
      3 N          59.3023   91.0178    5.0734 N.am    1  UNL1       -0.2438
      4 C          60.7579   90.7874    4.7942 C.3     1  UNL1        0.1009
      5 C          61.4850   91.6721    3.8252 C.3     1  UNL1        0.0662
      6 C          60.7563   92.7872    3.1356 C.3     1  UNL1        0.1600
      7 O          59.3007   93.0176    3.4148 O.3     1  UNL1       -0.4374
      8 C          58.5736   92.1329    4.3837 C.2     1  UNL1        0.4051
      9 O          57.1180   92.3633    4.6629 O.2     1  UNL1       -0.2262
     10 C          62.1238   92.9655    2.5457 C.ar    1  UNL1        0.0138
     11 C          62.5777   94.3244    2.1015 C.ar    1  UNL1       -0.0010
     12 C          63.9452   94.5028    1.5117 C.ar    1  UNL1       -0.0002
     13 C          64.8590   93.3222    1.3660 C.ar    1  UNL1       -0.0000
     14 C          64.4053   91.9633    1.8101 C.ar    1  UNL1       -0.0002
     15 C          63.0377   91.7849    2.4000 C.ar    1  UNL1       -0.0010
     16 C          60.5026   93.9642    2.2411 C.3     1  UNL1        0.0714
     17 C          59.6238   93.8138    1.0348 C.3     1  UNL1        0.0922
     18 C          59.4072   95.2979    1.0075 C.3     1  UNL1        0.0294
     19 C          59.8404   92.3297    1.0620 C.3     1  UNL1        0.0294
     20 O          58.7449   93.6634   -0.1715 O.3     1  UNL1       -0.3866
     21 H          58.4235   94.5357   -0.4481 H       1  UNL1        0.2102
     22 C          60.8698   87.8790    9.1894 C.ar    1  UNL1        0.0002
     23 C          60.8369   89.3784    9.2148 C.ar    1  UNL1       -0.0003
     24 C          60.0720   90.1298    8.1658 C.ar    1  UNL1       -0.0027
     25 C          59.3401   89.3818    7.0913 C.ar    1  UNL1       -0.0042
     26 C          59.3730   87.8824    7.0658 C.ar    1  UNL1       -0.0027
     27 C          60.1378   87.1310    8.1148 C.ar    1  UNL1       -0.0003
     28 N          63.1643   85.6250   12.3364 N.ar    1  UNL1       -0.2941
     29 C          62.4454   84.8775   11.2528 C.ar    1  UNL1        0.0783
     30 C          61.6806   85.6288   10.2038 C.ar    1  UNL1        0.0189
     31 C          61.6346   87.1277   10.2384 C.ar    1  UNL1        0.0062
     32 C          62.3536   87.8752   11.3220 C.ar    1  UNL1        0.0608
     33 C          63.1184   87.1238   12.3711 C.ar    1  UNL1        0.2610
     34 O          63.8374   87.8714   13.4547 O.2     1  UNL1       -0.2670
     35 C          63.9292   84.8736   13.3855 C.3     1  UNL1        0.1115
     36 C          63.3491   84.7022   14.7581 C.3     1  UNL1        0.0523
     37 C          62.2410   83.7172   14.9864 C.3     1  UNL1        0.0046
     38 C          63.8770   85.5157   15.9024 C.3     1  UNL1        0.1441
     39 C          62.6357   86.5140   17.9549 C.3     1  UNL1        0.1741
     40 O          63.0297   86.5942   16.5098 O.3     1  UNL1       -0.3510
@<TRIPOS>BOND
     1    39    40    1
     2    40    38    1
     3    38    36    1
     4    36    37    1
     5    36    35    1
     6    35    28    1
     7    28    29   ar
     8    29    30   ar
     9    30    31   ar
    10    31    22    1
    11    22    23   ar
    12    23    24   ar
    13    24    25   ar
    14    25     1    1
    15     1     2    1
    16     1     3    1
    17     3     4    1
    18     4     5    1
    19     5     6    1
    20     6    16    1
    21    16    17    1
    22    17    18    1
    23    17    19    1
    24    17    20    1
    25     6    10    1
    26    10    11   ar
    27    11    12   ar
    28    12    13   ar
    29    13    14   ar
    30    14    15   ar
    31     6     7    1
    32     7     8    1
    33     8     9    2
    34    25    26   ar
    35    26    27   ar
    36    31    32   ar
    37    32    33   ar
    38    33    34    2
    39    33    28   ar
    40    27    22   ar
    41     8     3   am
    42    15    10   ar
    43    20    21    1
@<TRIPOS>MOLECULE
*****
 40 43 0 0 0
SMALL
GASTEIGER

@<TRIPOS>ATOM
      1 C          58.5849   90.1064    6.0796 C.3     1  UNL1        0.1011
      2 C          57.0933   89.9708    5.9979 C.3     1  UNL1        0.0265
      3 N          59.3121   90.9882    5.1083 N.am    1  UNL1       -0.2438
      4 C          60.7644   90.7484    4.8197 C.3     1  UNL1        0.1009
      5 C          61.4917   91.6302    3.8483 C.3     1  UNL1        0.0662
      6 C          60.7666   92.7518    3.1656 C.3     1  UNL1        0.1600
      7 O          59.3143   92.9916    3.4541 O.3     1  UNL1       -0.4374
      8 C          58.5870   92.1099    4.4255 C.2     1  UNL1        0.4051
      9 O          57.1347   92.3497    4.7140 O.2     1  UNL1       -0.2262
     10 C          62.1317   92.9220    2.5678 C.ar    1  UNL1        0.0138
     11 C          63.0465   91.7404    2.4383 C.ar    1  UNL1       -0.0010
     12 C          64.4117   91.9106    1.8406 C.ar    1  UNL1       -0.0002
     13 C          64.8621   93.2626    1.3722 C.ar    1  UNL1       -0.0000
     14 C          63.9474   94.4443    1.5016 C.ar    1  UNL1       -0.0002
     15 C          62.5821   94.2741    2.0994 C.ar    1  UNL1       -0.0010
     16 C          60.5156   93.9326    2.2752 C.3     1  UNL1        0.0714
     17 C          59.6390   93.7876    1.0666 C.3     1  UNL1        0.0922
     18 C          59.8360   92.3010    1.1020 C.3     1  UNL1        0.0294
     19 C          59.4419   95.2742    1.0313 C.3     1  UNL1        0.0294
     20 O          58.7623   93.6427   -0.1419 O.3     1  UNL1       -0.3866
     21 H          58.6935   92.7051   -0.3809 H       1  UNL1        0.2102
     22 C          60.8779   87.8679    9.2389 C.ar    1  UNL1        0.0002
     23 C          60.1594   87.1150    8.1587 C.ar    1  UNL1       -0.0003
     24 C          59.3951   87.8612    7.1056 C.ar    1  UNL1       -0.0027
     25 C          59.3492   89.3602    7.1327 C.ar    1  UNL1       -0.0042
     26 C          60.0677   90.1131    8.2130 C.ar    1  UNL1       -0.0027
     27 C          60.8321   89.3669    9.2660 C.ar    1  UNL1       -0.0003
     28 N          63.1709   85.6293   12.3981 N.ar    1  UNL1       -0.2941
     29 C          62.4373   84.8759   11.3285 C.ar    1  UNL1        0.0783
     30 C          61.6729   85.6221   10.2754 C.ar    1  UNL1        0.0189
     31 C          61.6423   87.1217   10.2920 C.ar    1  UNL1        0.0062
     32 C          62.3759   87.8750   11.3616 C.ar    1  UNL1        0.0608
     33 C          63.1403   87.1289   12.4147 C.ar    1  UNL1        0.2610
     34 O          63.8739   87.8823   13.4843 O.2     1  UNL1       -0.2670
     35 C          63.9353   84.8831   13.4512 C.3     1  UNL1        0.1115
     36 C          63.3226   84.6524   14.8008 C.3     1  UNL1        0.0523
     37 C          63.6343   85.5831   15.9350 C.3     1  UNL1        0.0046
     38 C          62.3981   83.4909   15.0161 C.3     1  UNL1        0.1441
     39 C          61.4235   81.2494   14.1352 C.3     1  UNL1        0.1741
     40 O          62.5328   82.2585   14.1717 O.3     1  UNL1       -0.3510
@<TRIPOS>BOND
     1    39    40    1
     2    40    38    1
     3    38    36    1
     4    36    37    1
     5    36    35    1
     6    35    28    1
     7    28    29   ar
     8    29    30   ar
     9    30    31   ar
    10    31    22    1
    11    22    23   ar
    12    23    24   ar
    13    24    25   ar
    14    25     1    1
    15     1     2    1
    16     1     3    1
    17     3     4    1
    18     4     5    1
    19     5     6    1
    20     6    16    1
    21    16    17    1
    22    17    18    1
    23    17    19    1
    24    17    20    1
    25     6    10    1
    26    10    11   ar
    27    11    12   ar
    28    12    13   ar
    29    13    14   ar
    30    14    15   ar
    31     6     7    1
    32     7     8    1
    33     8     9    2
    34    25    26   ar
    35    26    27   ar
    36    31    32   ar
    37    32    33   ar
    38    33    34    2
    39    33    28   ar
    40    27    22   ar
    41     8     3   am
    42    15    10   ar
    43    20    21    1
@<TRIPOS>MOLECULE
*****
 40 43 0 0 0
SMALL
GASTEIGER

@<TRIPOS>ATOM
      1 C          58.9357   89.5231    6.6463 C.3     1  UNL1        0.1011
      2 C          57.4443   89.3660    6.6752 C.3     1  UNL1        0.0265
      3 N          59.7851   88.8049    7.6528 N.am    1  UNL1       -0.2438
      4 C          60.2681   87.4133    7.3700 C.3     1  UNL1        0.1009
      5 C          61.1175   86.6952    8.3765 C.3     1  UNL1        0.0662
      6 C          61.4837   87.3687    9.6657 C.3     1  UNL1        0.1600
      7 O          61.0007   88.7604    9.9485 O.3     1  UNL1       -0.4374
      8 C          60.1514   89.4785    8.9421 C.2     1  UNL1        0.4051
      9 O          59.6683   90.8701    9.2249 O.2     1  UNL1       -0.2262
     10 C          62.1777   86.0523    9.8533 C.ar    1  UNL1        0.0138
     11 C          62.9694   85.4547    8.7281 C.ar    1  UNL1       -0.0010
     12 C          63.6634   84.1382    8.9157 C.ar    1  UNL1       -0.0002
     13 C          63.5656   83.4192   10.2284 C.ar    1  UNL1       -0.0000
     14 C          62.7739   84.0166   11.3537 C.ar    1  UNL1       -0.0002
     15 C          62.0799   85.3332   11.1661 C.ar    1  UNL1       -0.0010
     16 C          62.0910   87.5851   11.0201 C.3     1  UNL1        0.0714
     17 C          61.6630   88.7550   11.8557 C.3     1  UNL1        0.0922
     18 C          63.0399   89.3393   11.7429 C.3     1  UNL1        0.0294
     19 C          60.2861   88.1706   11.9686 C.3     1  UNL1        0.0294
     20 O          61.2350   89.9248   12.6914 O.3     1  UNL1       -0.3866
     21 H          61.9822   90.5333   12.8027 H       1  UNL1        0.2102
     22 C          60.8621   92.1485    3.5405 C.ar    1  UNL1        0.0002
     23 C          59.4080   92.3172    3.8679 C.ar    1  UNL1       -0.0003
     24 C          58.7659   91.4420    4.9032 C.ar    1  UNL1       -0.0027
     25 C          59.5779   90.3982    5.6111 C.ar    1  UNL1       -0.0042
     26 C          61.0319   90.2295    5.2837 C.ar    1  UNL1       -0.0027
     27 C          61.6740   91.1047    4.2484 C.ar    1  UNL1       -0.0003
     28 N          62.7885   94.7740    0.4347 N.ar    1  UNL1       -0.2941
     29 C          61.3207   94.8997    0.7173 C.ar    1  UNL1        0.0783
     30 C          60.6786   94.0245    1.7526 C.ar    1  UNL1        0.0189
     31 C          61.5042   93.0237    2.5053 C.ar    1  UNL1        0.0062
     32 C          62.9720   92.8979    2.2226 C.ar    1  UNL1        0.0608
     33 C          63.6141   93.7731    1.1874 C.ar    1  UNL1        0.2610
     34 O          65.0819   93.6473    0.9048 O.2     1  UNL1       -0.2670
     35 C          63.4306   95.6491   -0.6006 C.3     1  UNL1        0.1115
     36 C          63.8257   95.0740   -1.9283 C.3     1  UNL1        0.0523
     37 C          64.8959   95.7366   -2.7442 C.3     1  UNL1        0.0046
     38 C          63.1507   93.8361   -2.4403 C.3     1  UNL1        0.1441
     39 C          63.8920   92.6967   -4.6544 C.3     1  UNL1        0.1741
     40 O          63.9492   92.7888   -3.1583 O.3     1  UNL1       -0.3510
@<TRIPOS>BOND
     1    39    40    1
     2    40    38    1
     3    38    36    1
     4    36    37    1
     5    36    35    1
     6    35    28    1
     7    28    29   ar
     8    29    30   ar
     9    30    31   ar
    10    31    22    1
    11    22    23   ar
    12    23    24   ar
    13    24    25   ar
    14    25     1    1
    15     1     2    1
    16     1     3    1
    17     3     4    1
    18     4     5    1
    19     5     6    1
    20     6    16    1
    21    16    17    1
    22    17    18    1
    23    17    19    1
    24    17    20    1
    25     6    10    1
    26    10    11   ar
    27    11    12   ar
    28    12    13   ar
    29    13    14   ar
    30    14    15   ar
    31     6     7    1
    32     7     8    1
    33     8     9    2
    34    25    26   ar
    35    26    27   ar
    36    31    32   ar
    37    32    33   ar
    38    33    34    2
    39    33    28   ar
    40    27    22   ar
    41     8     3   am
    42    15    10   ar
    43    20    21    1
@<TRIPOS>MOLECULE
*****
 40 43 0 0 0
SMALL
GASTEIGER

@<TRIPOS>ATOM
      1 C          59.0202   89.7592    6.5815 C.3     1  UNL1        0.1011
      2 C          57.5529   89.4599    6.4954 C.3     1  UNL1        0.0265
      3 N          59.8245   89.2421    7.7371 N.am    1  UNL1       -0.2438
      4 C          60.5834   90.1972    8.6099 C.3     1  UNL1        0.1009
      5 C          61.3878   89.6800    9.7655 C.3     1  UNL1        0.0662
      6 C          61.4333   88.2076   10.0483 C.3     1  UNL1        0.1600
      7 O          60.6745   87.2524    9.1755 O.3     1  UNL1       -0.4374
      8 C          59.8701   87.7696    8.0199 C.2     1  UNL1        0.4051
      9 O          59.1113   86.8144    7.1472 O.2     1  UNL1       -0.2262
     10 C          62.3142   88.7124   11.1525 C.ar    1  UNL1        0.0138
     11 C          62.8045   87.7697   12.2112 C.ar    1  UNL1       -0.0010
     12 C          63.6854   88.2744   13.3154 C.ar    1  UNL1       -0.0002
     13 C          64.0760   89.7219   13.3609 C.ar    1  UNL1       -0.0000
     14 C          63.5858   90.6647   12.3023 C.ar    1  UNL1       -0.0002
     15 C          62.7049   90.1600   11.1980 C.ar    1  UNL1       -0.0010
     16 C          61.7848   86.9105   10.7146 C.3     1  UNL1        0.0714
     17 C          62.4677   85.8271    9.9336 C.3     1  UNL1        0.0922
     18 C          62.8676   86.8299    8.8922 C.3     1  UNL1        0.0294
     19 C          62.0677   84.8243   10.9751 C.3     1  UNL1        0.0294
     20 O          63.1506   84.7437    9.1526 O.3     1  UNL1       -0.3866
     21 H          63.5416   85.1215    8.3494 H       1  UNL1        0.2102
     22 C          61.0089   92.2086    3.3728 C.ar    1  UNL1        0.0002
     23 C          59.5710   92.4551    3.7216 C.ar    1  UNL1       -0.0003
     24 C          58.9081   91.6386    4.7912 C.ar    1  UNL1       -0.0027
     25 C          59.6831   90.5757    5.5119 C.ar    1  UNL1       -0.0042
     26 C          61.1209   90.3292    5.1631 C.ar    1  UNL1       -0.0027
     27 C          61.7838   91.1456    4.0935 C.ar    1  UNL1       -0.0003
     28 N          62.9976   94.6580    0.1641 N.ar    1  UNL1       -0.2941
     29 C          61.5365   94.8409    0.4501 C.ar    1  UNL1        0.0783
     30 C          60.8736   94.0244    1.5196 C.ar    1  UNL1        0.0189
     31 C          61.6718   93.0250    2.3032 C.ar    1  UNL1        0.0062
     32 C          63.1328   92.8421    2.0173 C.ar    1  UNL1        0.0608
     33 C          63.7957   93.6586    0.9477 C.ar    1  UNL1        0.2610
     34 O          65.2569   93.4756    0.6618 O.2     1  UNL1       -0.2670
     35 C          63.6605   95.4744   -0.9054 C.3     1  UNL1        0.1115
     36 C          63.9740   94.8556   -2.2353 C.3     1  UNL1        0.0523
     37 C          64.8546   95.5793   -3.2105 C.3     1  UNL1        0.0046
     38 C          63.4069   93.5130   -2.5902 C.3     1  UNL1        0.1441
     39 C          60.8845   93.8511   -3.1130 C.3     1  UNL1        0.1741
     40 O          62.2534   93.4144   -3.5439 O.3     1  UNL1       -0.3510
@<TRIPOS>BOND
     1    39    40    1
     2    40    38    1
     3    38    36    1
     4    36    37    1
     5    36    35    1
     6    35    28    1
     7    28    29   ar
     8    29    30   ar
     9    30    31   ar
    10    31    22    1
    11    22    23   ar
    12    23    24   ar
    13    24    25   ar
    14    25     1    1
    15     1     2    1
    16     1     3    1
    17     3     4    1
    18     4     5    1
    19     5     6    1
    20     6    16    1
    21    16    17    1
    22    17    18    1
    23    17    19    1
    24    17    20    1
    25     6    10    1
    26    10    11   ar
    27    11    12   ar
    28    12    13   ar
    29    13    14   ar
    30    14    15   ar
    31     6     7    1
    32     7     8    1
    33     8     9    2
    34    25    26   ar
    35    26    27   ar
    36    31    32   ar
    37    32    33   ar
    38    33    34    2
    39    33    28   ar
    40    27    22   ar
    41     8     3   am
    42    15    10   ar
    43    20    21    1
