@<TRIPOS>MOLECULE
*****
 45 51 0 0 0
SMALL
GASTEIGER

@<TRIPOS>ATOM
      1 C          59.5256   88.7491    7.5735 C.3     1  UNL1        0.1540
      2 O          59.6329   88.8244   10.5707 O.2     1  UNL1       -0.2526
      3 C          60.7210   89.4700    9.7648 C.2     1  UNL1        0.3043
      4 N          60.6673   89.4323    8.2662 N.am    1  UNL1       -0.2822
      5 N          61.8627   90.1532   10.4574 N.am    1  UNL1       -0.2641
      6 C          62.9507   90.7987    9.6515 C.3     1  UNL1        0.0967
      7 C          64.0924   91.4819   10.3442 C.3     1  UNL1        0.0418
      8 C          64.1460   91.5195   11.8428 C.3     1  UNL1        0.0848
      9 C          63.0580   90.8739   12.6487 C.3     1  UNL1        0.0418
     10 C          61.9163   90.1907   11.9560 C.3     1  UNL1        0.0967
     11 H          61.3814   89.8560    7.7373 H       1  UNL1        0.1514
     12 N          65.2877   92.2027   12.5355 N.am    1  UNL1       -0.2422
     13 C          66.3986   92.9583   11.8684 C.2     1  UNL1        0.3310
     14 O          66.5628   93.1634   10.3916 O.2     1  UNL1       -0.2501
     15 N          67.3164   93.4728   12.9374 N.am    1  UNL1       -0.1647
     16 C          66.7728   93.0352   14.2652 C.2     1  UNL1        0.0706
     17 C          67.2575   93.2501   15.6684 C.3     1  UNL1        0.0705
     18 C          66.4884   92.6800   16.8231 C.2     1  UNL1       -0.0199
     19 C          65.2345   91.8950   16.5747 C.2     1  UNL1       -0.0029
     20 C          64.7498   91.6801   15.1715 C.2     1  UNL1        0.0156
     21 C          65.5189   92.2502   14.0168 C.2     1  UNL1        0.0668
     22 C          58.6005   89.5387    6.6955 C.2     1  UNL1        0.2439
     23 O          57.1154   89.4085    6.8617 O.2     1  UNL1       -0.2731
     24 N          59.1606   90.4585    5.6513 N.am    1  UNL1       -0.2781
     25 C          60.6456   90.5887    5.4851 C.3     1  UNL1        0.0948
     26 C          61.2056   91.5085    4.4409 C.3     1  UNL1        0.0375
     27 C          60.2806   92.2981    3.5629 C.3     1  UNL1        0.0609
     28 C          58.7956   92.1678    3.7291 C.3     1  UNL1        0.0375
     29 C          58.2355   91.2480    4.7733 C.3     1  UNL1        0.0948
     30 N          60.8407   93.2178    2.5187 N.3     1  UNL1       -0.2738
     31 C          62.1021   92.8509    1.7946 C.3     1  UNL1        0.0720
     32 C          62.6621   93.7708    0.7505 C.3     1  UNL1        0.0174
     33 C          61.9608   95.0575    0.4304 C.3     1  UNL1        0.0029
     34 C          60.6995   95.4244    1.1546 C.3     1  UNL1        0.0174
     35 C          60.1394   94.5047    2.1987 C.3     1  UNL1        0.0720
     36 C          59.3089   87.2765    7.7587 C.3     1  UNL1        0.0514
     37 C          60.4503   86.3972    8.1762 C.2     1  UNL1       -0.0375
     38 C          61.3123   85.7434    7.1374 C.2     1  UNL1       -0.0065
     39 C          62.4536   84.8641    7.5549 C.2     1  UNL1        0.0200
     40 C          62.7329   84.6387    9.0113 C.2     1  UNL1        0.1007
     41 N          63.7793   83.8301    9.7192 N.2     1  UNL1       -0.1482
     42 N          63.5639   83.9842   11.1956 N.2     1  UNL1       -0.1467
     43 C          62.3844   84.8881   11.4002 C.2     1  UNL1        0.1197
     44 C          61.8708   85.2926   10.0502 C.2     1  UNL1        0.0222
     45 C          60.7295   86.1718    9.6326 C.3     1  UNL1        0.0516
@<TRIPOS>BOND
     1     2     3    2
     2     3     4   am
     3     4     1    1
     4     1    36    1
     5    36    37    1
     6    37    38    2
     7    38    39    1
     8    39    40    2
     9    40    41    1
    10    41    42    2
    11    42    43    1
    12    43    44    2
    13    44    45    1
    14     1    22    1
    15    22    23    2
    16    22    24   am
    17    24    25    1
    18    25    26    1
    19    26    27    1
    20    27    30    1
    21    30    31    1
    22    31    32    1
    23    32    33    1
    24    33    34    1
    25    34    35    1
    26    27    28    1
    27    28    29    1
    28     3     5   am
    29     5     6    1
    30     6     7    1
    31     7     8    1
    32     8    12    1
    33    12    13   am
    34    13    14    2
    35    13    15    1
    36    15    16    2
    37    16    17    1
    38    17    18    1
    39    18    19    2
    40    19    20    1
    41    20    21    2
    42     8     9    1
    43     9    10    1
    44    45    37    1
    45    29    24    1
    46    10     5    1
    47    44    40    1
    48    35    30    1
    49    21    12    1
    50    21    16    1
    51     4    11    1
@<TRIPOS>MOLECULE
*****
 45 51 0 0 0
SMALL
GASTEIGER

@<TRIPOS>ATOM
      1 C          60.4154   88.2327    8.3696 C.3     1  UNL1        0.1540
      2 O          57.9822   89.2873    6.9671 O.2     1  UNL1       -0.2526
      3 C          59.3461   89.7633    6.5630 C.2     1  UNL1        0.3043
      4 N          60.5627   89.2359    7.2642 N.am    1  UNL1       -0.2822
      5 N          59.4934   90.7665    5.4576 N.am    1  UNL1       -0.2641
      6 C          60.8573   91.2424    5.0535 C.3     1  UNL1        0.0967
      7 C          61.0046   92.2456    3.9482 C.3     1  UNL1        0.0418
      8 C          59.7879   92.7729    3.2469 C.3     1  UNL1        0.0848
      9 C          58.4240   92.2970    3.6510 C.3     1  UNL1        0.0418
     10 C          58.2768   91.2938    4.7564 C.3     1  UNL1        0.0967
     11 H          61.4578   89.5483    6.9990 H       1  UNL1        0.1514
     12 N          59.9353   93.7762    2.1415 N.am    1  UNL1       -0.2422
     13 C          59.9903   95.2663    2.3049 C.2     1  UNL1        0.3310
     14 O          59.9077   96.0147    3.6021 O.2     1  UNL1       -0.2501
     15 N          60.1424   95.8765    0.9431 N.am    1  UNL1       -0.1647
     16 C          60.1815   94.7636   -0.0619 C.2     1  UNL1        0.0706
     17 C          60.3170   94.7645   -1.5558 C.3     1  UNL1        0.0705
     18 C          60.3246   93.4673   -2.3089 C.2     1  UNL1       -0.0199
     19 C          60.1965   92.1692   -1.5682 C.2     1  UNL1       -0.0029
     20 C          60.0609   92.1683   -0.0743 C.2     1  UNL1        0.0156
     21 C          60.0534   93.4655    0.6788 C.2     1  UNL1        0.0668
     22 C          60.2096   88.6968    9.7811 C.2     1  UNL1        0.2439
     23 O          58.9163   88.4085   10.4844 O.2     1  UNL1       -0.2731
     24 N          61.2970   89.4491   10.4894 N.am    1  UNL1       -0.2781
     25 C          62.5902   89.7373    9.7862 C.3     1  UNL1        0.0948
     26 C          63.6776   90.4895   10.4944 C.3     1  UNL1        0.0375
     27 C          63.4718   90.9537   11.9059 C.3     1  UNL1        0.0609
     28 C          62.1786   90.6654   12.6091 C.3     1  UNL1        0.0375
     29 C          61.0912   89.9131   11.9008 C.3     1  UNL1        0.0948
     30 N          64.5592   91.7059   12.6141 N.3     1  UNL1       -0.2738
     31 C          64.9256   91.3454   14.0232 C.3     1  UNL1        0.0720
     32 C          66.0131   92.0978   14.7313 C.3     1  UNL1        0.0174
     33 C          66.7341   93.2106   14.0302 C.3     1  UNL1        0.0029
     34 C          66.3677   93.5712   12.6210 C.3     1  UNL1        0.0174
     35 C          65.2803   92.8189   11.9130 C.3     1  UNL1        0.0720
     36 C          60.4740   86.7654    8.0636 C.3     1  UNL1        0.0514
     37 C          61.4862   85.8961    8.7493 C.2     1  UNL1       -0.0375
     38 C          62.5435   85.1991    7.9455 C.2     1  UNL1       -0.0065
     39 C          63.5557   84.3298    8.6312 C.2     1  UNL1        0.0200
     40 C          63.5104   84.1577   10.1206 C.2     1  UNL1        0.1007
     41 N          64.3680   83.3705   11.0665 N.2     1  UNL1       -0.1482
     42 N          63.8407   83.5811   12.4548 N.2     1  UNL1       -0.1467
     43 C          62.6571   84.4985   12.3670 C.2     1  UNL1        0.1197
     44 C          62.4530   84.8548   10.9243 C.2     1  UNL1        0.0222
     45 C          61.4409   85.7241   10.2386 C.3     1  UNL1        0.0516
@<TRIPOS>BOND
     1     2     3    2
     2     3     4   am
     3     4     1    1
     4     1    36    1
     5    36    37    1
     6    37    38    2
     7    38    39    1
     8    39    40    2
     9    40    41    1
    10    41    42    2
    11    42    43    1
    12    43    44    2
    13    44    45    1
    14     1    22    1
    15    22    23    2
    16    22    24   am
    17    24    25    1
    18    25    26    1
    19    26    27    1
    20    27    30    1
    21    30    31    1
    22    31    32    1
    23    32    33    1
    24    33    34    1
    25    34    35    1
    26    27    28    1
    27    28    29    1
    28     3     5   am
    29     5     6    1
    30     6     7    1
    31     7     8    1
    32     8    12    1
    33    12    13   am
    34    13    14    2
    35    13    15    1
    36    15    16    2
    37    16    17    1
    38    17    18    1
    39    18    19    2
    40    19    20    1
    41    20    21    2
    42     8     9    1
    43     9    10    1
    44    45    37    1
    45    29    24    1
    46    10     5    1
    47    44    40    1
    48    35    30    1
    49    21    12    1
    50    21    16    1
    51     4    11    1
@<TRIPOS>MOLECULE
*****
 45 51 0 0 0
SMALL
GASTEIGER

@<TRIPOS>ATOM
      1 C          60.2654   89.1015    8.0446 C.3     1  UNL1        0.1540
      2 O          58.2208   90.5474    6.3925 O.2     1  UNL1       -0.2526
      3 C          59.6619   90.5531    5.9760 C.2     1  UNL1        0.3043
      4 N          60.6841   89.8301    6.8021 N.am    1  UNL1       -0.2822
      5 N          60.0806   91.2817    4.7335 N.am    1  UNL1       -0.2641
      6 C          61.5217   91.2873    4.3171 C.3     1  UNL1        0.0967
      7 C          61.9405   92.0159    3.0746 C.3     1  UNL1        0.0418
      8 C          60.9181   92.7388    2.2485 C.3     1  UNL1        0.0848
      9 C          59.4771   92.7332    2.6650 C.3     1  UNL1        0.0418
     10 C          59.0584   92.0046    3.9075 C.3     1  UNL1        0.0967
     11 H          61.6299   89.8338    6.5287 H       1  UNL1        0.1514
     12 N          61.3369   93.4674    1.0060 N.am    1  UNL1       -0.2422
     13 C          62.5099   94.3938    0.8803 C.2     1  UNL1        0.3310
     14 O          63.4700   94.7543    1.9748 O.2     1  UNL1       -0.2501
     15 N          62.5542   94.8964   -0.5323 N.am    1  UNL1       -0.1647
     16 C          61.4086   94.2807   -1.2796 C.2     1  UNL1        0.0706
     17 C          60.9532   94.4101   -2.7030 C.3     1  UNL1        0.0705
     18 C          59.7455   93.6563   -3.1755 C.2     1  UNL1       -0.0199
     19 C          58.9932   92.7731   -2.2247 C.2     1  UNL1       -0.0029
     20 C          59.4485   92.6437   -0.8014 C.2     1  UNL1        0.0156
     21 C          60.6562   93.3975   -0.3288 C.2     1  UNL1        0.0668
     22 C          60.2592   87.6017    8.0684 C.2     1  UNL1        0.2439
     23 O          59.5258   86.8378    7.0060 O.2     1  UNL1       -0.2731
     24 N          60.9863   86.8658    9.1546 N.am    1  UNL1       -0.2781
     25 C          61.7197   87.6298   10.2169 C.3     1  UNL1        0.0948
     26 C          62.4468   86.8939   11.3030 C.3     1  UNL1        0.0375
     27 C          62.4407   85.3941   11.3269 C.3     1  UNL1        0.0609
     28 C          61.7073   84.6302   10.2645 C.3     1  UNL1        0.0375
     29 C          60.9802   85.3661    9.1783 C.3     1  UNL1        0.0948
     30 N          63.1678   84.6583   12.4130 N.3     1  UNL1       -0.2738
     31 C          63.8044   85.4192   13.5381 C.3     1  UNL1        0.0720
     32 C          64.5315   84.6833   14.6243 C.3     1  UNL1        0.0174
     33 C          64.6222   83.1866   14.5853 C.3     1  UNL1        0.0029
     34 C          63.9856   82.4257   13.4602 C.3     1  UNL1        0.0174
     35 C          63.2585   83.1615   12.3741 C.3     1  UNL1        0.0720
     36 C          59.8529   89.8726    9.2633 C.3     1  UNL1        0.0514
     37 C          60.8713   90.2295   10.3052 C.2     1  UNL1       -0.0375
     38 C          60.6044   89.9262   11.7497 C.2     1  UNL1       -0.0065
     39 C          61.6228   90.2831   12.7917 C.2     1  UNL1        0.0200
     40 C          62.9081   90.9434   12.3889 C.2     1  UNL1        0.1007
     41 N          64.0905   91.4082   13.1863 N.2     1  UNL1       -0.1482
     42 N          65.0881   91.9988   12.2345 N.2     1  UNL1       -0.1467
     43 C          64.5222   91.8991   10.8489 C.2     1  UNL1        0.1197
     44 C          63.1749   91.2468   10.9444 C.2     1  UNL1        0.0222
     45 C          62.1565   90.8898    9.9025 C.3     1  UNL1        0.0516
@<TRIPOS>BOND
     1     2     3    2
     2     3     4   am
     3     4     1    1
     4     1    36    1
     5    36    37    1
     6    37    38    2
     7    38    39    1
     8    39    40    2
     9    40    41    1
    10    41    42    2
    11    42    43    1
    12    43    44    2
    13    44    45    1
    14     1    22    1
    15    22    23    2
    16    22    24   am
    17    24    25    1
    18    25    26    1
    19    26    27    1
    20    27    30    1
    21    30    31    1
    22    31    32    1
    23    32    33    1
    24    33    34    1
    25    34    35    1
    26    27    28    1
    27    28    29    1
    28     3     5   am
    29     5     6    1
    30     6     7    1
    31     7     8    1
    32     8    12    1
    33    12    13   am
    34    13    14    2
    35    13    15    1
    36    15    16    2
    37    16    17    1
    38    17    18    1
    39    18    19    2
    40    19    20    1
    41    20    21    2
    42     8     9    1
    43     9    10    1
    44    45    37    1
    45    29    24    1
    46    10     5    1
    47    44    40    1
    48    35    30    1
    49    21    12    1
    50    21    16    1
    51     4    11    1
@<TRIPOS>MOLECULE
*****
 45 51 0 0 0
SMALL
GASTEIGER

@<TRIPOS>ATOM
      1 C          60.1457   89.1729    7.8503 C.3     1  UNL1        0.1540
      2 O          58.2355   90.7489    6.1569 O.2     1  UNL1       -0.2526
      3 C          59.6853   90.6727    5.7793 C.2     1  UNL1        0.3043
      4 N          60.6403   89.8847    6.6261 N.am    1  UNL1       -0.2822
      5 N          60.1800   91.3844    4.5551 N.am    1  UNL1       -0.2641
      6 C          61.6297   91.3081    4.1776 C.3     1  UNL1        0.0967
      7 C          62.1244   92.0199    2.9533 C.3     1  UNL1        0.0418
      8 C          61.1692   92.8079    2.1067 C.3     1  UNL1        0.0848
      9 C          59.7195   92.8841    2.4842 C.3     1  UNL1        0.0418
     10 C          59.2249   92.1723    3.7084 C.3     1  UNL1        0.0967
     11 H          61.5918   89.8346    6.3783 H       1  UNL1        0.1514
     12 N          61.6639   93.5196    0.8824 N.am    1  UNL1       -0.2422
     13 C          61.0836   93.4093   -0.4964 C.2     1  UNL1        0.3310
     14 O          59.9069   92.5679   -0.8931 O.2     1  UNL1       -0.2501
     15 N          61.8867   94.2881   -1.4089 N.am    1  UNL1       -0.1647
     16 C          62.9634   94.9416   -0.5941 C.2     1  UNL1        0.0706
     17 C          64.0513   95.9077   -0.9586 C.3     1  UNL1        0.0705
     18 C          65.0015   96.3989    0.0930 C.2     1  UNL1       -0.0199
     19 C          64.8637   95.9239    1.5092 C.2     1  UNL1       -0.0029
     20 C          63.7758   94.9578    1.8737 C.2     1  UNL1        0.0156
     21 C          62.8256   94.4666    0.8221 C.2     1  UNL1        0.0668
     22 C          60.1029   87.6738    7.8803 C.2     1  UNL1        0.2439
     23 O          59.2938   86.9261    6.8622 O.2     1  UNL1       -0.2731
     24 N          60.8690   86.9224    8.9284 N.am    1  UNL1       -0.2781
     25 C          61.6780   87.6700    9.9465 C.3     1  UNL1        0.0948
     26 C          62.4441   86.9187   10.9945 C.3     1  UNL1        0.0375
     27 C          62.4013   85.4195   11.0245 C.3     1  UNL1        0.0609
     28 C          61.5923   84.6719   10.0064 C.3     1  UNL1        0.0375
     29 C          60.8261   85.4233    8.9583 C.3     1  UNL1        0.0948
     30 N          63.1674   84.6683   12.0725 N.3     1  UNL1       -0.2738
     31 C          63.4971   83.2195   11.8666 C.3     1  UNL1        0.0720
     32 C          64.2633   82.4683   12.9147 C.3     1  UNL1        0.0174
     33 C          64.6998   83.1658   14.1689 C.3     1  UNL1        0.0029
     34 C          64.3700   84.6146   14.3749 C.3     1  UNL1        0.0174
     35 C          63.6039   85.3657   13.3268 C.3     1  UNL1        0.0720
     36 C          59.6940   89.9601    9.0446 C.3     1  UNL1        0.0514
     37 C          60.6496   90.2327   10.1683 C.2     1  UNL1       -0.0375
     38 C          60.2603   89.9069   11.5796 C.2     1  UNL1       -0.0065
     39 C          61.2159   90.1795   12.7033 C.2     1  UNL1        0.0200
     40 C          62.5608   90.7779   12.4155 C.2     1  UNL1        0.1007
     41 N          63.7037   91.1555   13.3106 N.2     1  UNL1       -0.1482
     42 N          64.7994   91.7147   12.4523 N.2     1  UNL1       -0.1467
     43 C          64.3338   91.6828   11.0268 C.2     1  UNL1        0.1197
     44 C          62.9502   91.1038   11.0040 C.2     1  UNL1        0.0222
     45 C          61.9946   90.8312    9.8804 C.3     1  UNL1        0.0516
@<TRIPOS>BOND
     1     2     3    2
     2     3     4   am
     3     4     1    1
     4     1    36    1
     5    36    37    1
     6    37    38    2
     7    38    39    1
     8    39    40    2
     9    40    41    1
    10    41    42    2
    11    42    43    1
    12    43    44    2
    13    44    45    1
    14     1    22    1
    15    22    23    2
    16    22    24   am
    17    24    25    1
    18    25    26    1
    19    26    27    1
    20    27    30    1
    21    30    31    1
    22    31    32    1
    23    32    33    1
    24    33    34    1
    25    34    35    1
    26    27    28    1
    27    28    29    1
    28     3     5   am
    29     5     6    1
    30     6     7    1
    31     7     8    1
    32     8    12    1
    33    12    13   am
    34    13    14    2
    35    13    15    1
    36    15    16    2
    37    16    17    1
    38    17    18    1
    39    18    19    2
    40    19    20    1
    41    20    21    2
    42     8     9    1
    43     9    10    1
    44    45    37    1
    45    29    24    1
    46    10     5    1
    47    44    40    1
    48    35    30    1
    49    21    12    1
    50    21    16    1
    51     4    11    1
@<TRIPOS>MOLECULE
*****
 45 51 0 0 0
SMALL
GASTEIGER

@<TRIPOS>ATOM
      1 C          60.1694   88.5384    7.9763 C.3     1  UNL1        0.1540
      2 O          60.1627   88.9868   10.9426 O.2     1  UNL1       -0.2526
      3 C          61.2262   89.6151   10.0915 C.2     1  UNL1        0.3043
      4 N          61.2296   89.3908    8.6084 N.am    1  UNL1       -0.2822
      5 N          62.2864   90.4675   10.7236 N.am    1  UNL1       -0.2641
      6 C          63.3499   91.0957    9.8725 C.3     1  UNL1        0.0967
      7 C          64.4100   91.9481   10.5045 C.3     1  UNL1        0.0418
      8 C          64.4066   92.1723   11.9877 C.3     1  UNL1        0.0848
      9 C          63.3431   91.5441   12.8388 C.3     1  UNL1        0.0418
     10 C          62.2830   90.6917   12.2067 C.3     1  UNL1        0.0967
     11 H          61.9276   89.8031    8.0498 H       1  UNL1        0.1514
     12 N          65.4667   93.0247   12.6197 N.am    1  UNL1       -0.2422
     13 C          65.9298   94.3643   12.1287 C.2     1  UNL1        0.3310
     14 O          65.4142   95.0866   10.9195 O.2     1  UNL1       -0.2501
     15 N          66.9992   94.8547   13.0592 N.am    1  UNL1       -0.1647
     16 C          67.1971   93.8183   14.1254 C.2     1  UNL1        0.0706
     17 C          68.1172   93.7583   15.3085 C.3     1  UNL1        0.0705
     18 C          68.0903   92.5672   16.2199 C.2     1  UNL1       -0.0199
     19 C          67.1431   91.4362   15.9483 C.2     1  UNL1       -0.0029
     20 C          66.2229   91.4962   14.7652 C.2     1  UNL1        0.0156
     21 C          66.2499   92.6873   13.8538 C.2     1  UNL1        0.0668
     22 C          60.3454   87.0503    7.9082 C.2     1  UNL1        0.2439
     23 O          59.8080   86.2843    6.7357 O.2     1  UNL1       -0.2731
     24 N          61.0589   86.3282    9.0125 N.am    1  UNL1       -0.2781
     25 C          61.5963   87.0941   10.1849 C.3     1  UNL1        0.0948
     26 C          62.3097   86.3720   11.2892 C.3     1  UNL1        0.0375
     27 C          62.4857   84.8839   11.2212 C.3     1  UNL1        0.0609
     28 C          61.9483   84.1180   10.0488 C.3     1  UNL1        0.0375
     29 C          61.2349   84.8401    8.9445 C.3     1  UNL1        0.0948
     30 N          63.1992   84.1619   12.3255 N.3     1  UNL1       -0.2738
     31 C          63.2609   82.6632   12.3246 C.3     1  UNL1        0.0720
     32 C          63.9743   81.9412   13.4290 C.3     1  UNL1        0.0174
     33 C          64.6261   82.7180   14.5344 C.3     1  UNL1        0.0029
     34 C          64.5644   84.2167   14.5353 C.3     1  UNL1        0.0174
     35 C          63.8510   84.9386   13.4309 C.3     1  UNL1        0.0720
     36 C          58.9334   89.1740    7.4122 C.3     1  UNL1        0.0514
     37 C          59.0419   90.1446    6.2736 C.2     1  UNL1       -0.0375
     38 C          57.8185   90.8536    5.7733 C.2     1  UNL1       -0.0065
     39 C          57.9271   91.8241    4.6347 C.2     1  UNL1        0.0200
     40 C          59.2591   92.0856    3.9965 C.2     1  UNL1        0.1007
     41 N          59.6721   92.9811    2.8663 N.2     1  UNL1       -0.1482
     42 N          61.1508   92.8256    2.6682 N.2     1  UNL1       -0.1467
     43 C          61.6517   91.8339    3.6760 C.2     1  UNL1        0.1197
     44 C          60.4826   91.3765    4.4969 C.2     1  UNL1        0.0222
     45 C          60.3740   90.4060    5.6355 C.3     1  UNL1        0.0516
@<TRIPOS>BOND
     1     2     3    2
     2     3     4   am
     3     4     1    1
     4     1    36    1
     5    36    37    1
     6    37    38    2
     7    38    39    1
     8    39    40    2
     9    40    41    1
    10    41    42    2
    11    42    43    1
    12    43    44    2
    13    44    45    1
    14     1    22    1
    15    22    23    2
    16    22    24   am
    17    24    25    1
    18    25    26    1
    19    26    27    1
    20    27    30    1
    21    30    31    1
    22    31    32    1
    23    32    33    1
    24    33    34    1
    25    34    35    1
    26    27    28    1
    27    28    29    1
    28     3     5   am
    29     5     6    1
    30     6     7    1
    31     7     8    1
    32     8    12    1
    33    12    13   am
    34    13    14    2
    35    13    15    1
    36    15    16    2
    37    16    17    1
    38    17    18    1
    39    18    19    2
    40    19    20    1
    41    20    21    2
    42     8     9    1
    43     9    10    1
    44    45    37    1
    45    29    24    1
    46    10     5    1
    47    44    40    1
    48    35    30    1
    49    21    12    1
    50    21    16    1
    51     4    11    1
@<TRIPOS>MOLECULE
*****
 45 51 0 0 0
SMALL
GASTEIGER

@<TRIPOS>ATOM
      1 C          61.0833   93.7075    1.1022 C.3     1  UNL1        0.1540
      2 O          58.5053   92.9033    2.4090 O.2     1  UNL1       -0.2526
      3 C          59.8127   92.4449    2.9842 C.2     1  UNL1        0.3043
      4 N          61.1016   92.8470    2.3307 N.am    1  UNL1       -0.2822
      5 N          59.8312   91.5845    4.2128 N.am    1  UNL1       -0.2641
      6 C          61.1385   91.1262    4.7879 C.3     1  UNL1        0.0967
      7 C          61.1570   90.2658    6.0164 C.3     1  UNL1        0.0418
      8 C          59.8680   89.8637    6.6699 C.3     1  UNL1        0.0848
      9 C          58.5606   90.3221    6.0948 C.3     1  UNL1        0.0418
     10 C          58.5423   91.1825    4.8662 C.3     1  UNL1        0.0967
     11 H          61.9597   92.5462    2.7082 H       1  UNL1        0.1514
     12 N          59.8864   89.0033    7.8984 N.am    1  UNL1       -0.2422
     13 C          59.2279   87.6638    8.0466 C.2     1  UNL1        0.3310
     14 O          58.4354   86.9494    6.9923 O.2     1  UNL1       -0.2501
     15 N          59.5011   87.1639    9.4342 N.am    1  UNL1       -0.1647
     16 C          60.3285   88.1946   10.1437 C.2     1  UNL1        0.0706
     17 C          60.8958   88.2448   11.5314 C.3     1  UNL1        0.0705
     18 C          61.7012   89.4318   11.9699 C.2     1  UNL1       -0.0199
     19 C          61.9393   90.5687   11.0206 C.2     1  UNL1       -0.0029
     20 C          61.3720   90.5185    9.6329 C.2     1  UNL1        0.0156
     21 C          60.5666   89.3314    9.1944 C.2     1  UNL1        0.0668
     22 C          60.2030   94.9209    1.0495 C.2     1  UNL1        0.2439
     23 O          60.3405   95.9930    2.0897 O.2     1  UNL1       -0.2731
     24 N          59.1852   95.0623   -0.0433 N.am    1  UNL1       -0.2781
     25 C          59.0477   93.9902   -1.0834 C.3     1  UNL1        0.0948
     26 C          58.0300   94.1316   -2.1761 C.3     1  UNL1        0.0375
     27 C          57.1497   95.3450   -2.2288 C.3     1  UNL1        0.0609
     28 C          57.2872   96.4170   -1.1887 C.3     1  UNL1        0.0375
     29 C          58.3050   96.2757   -0.0960 C.3     1  UNL1        0.0948
     30 N          56.1320   95.4863   -3.3216 N.3     1  UNL1       -0.2738
     31 C          56.3677   94.8396   -4.6543 C.3     1  UNL1        0.0720
     32 C          55.3499   94.9809   -5.7471 C.3     1  UNL1        0.0174
     33 C          54.0963   95.7690   -5.5071 C.3     1  UNL1        0.0029
     34 C          53.8606   96.4157   -4.1744 C.3     1  UNL1        0.0174
     35 C          54.8784   96.2744   -3.0817 C.3     1  UNL1        0.0720
     36 C          61.9451   93.3545   -0.0737 C.3     1  UNL1        0.0514
     37 C          63.0955   94.2394   -0.4528 C.2     1  UNL1       -0.0375
     38 C          64.0187   94.7644    0.6064 C.2     1  UNL1       -0.0065
     39 C          65.1691   95.6493    0.2273 C.2     1  UNL1        0.0200
     40 C          65.3962   96.0091   -1.2111 C.2     1  UNL1        0.1007
     41 N          66.4379   96.8547   -1.8817 N.2     1  UNL1       -0.1482
     42 N          66.1584   96.8524   -3.3554 N.2     1  UNL1       -0.1467
     43 C          64.9440   96.0052   -3.5956 C.2     1  UNL1        0.1197
     44 C          64.4729   95.4840   -2.2703 C.2     1  UNL1        0.0222
     45 C          63.3226   94.5992   -1.8912 C.3     1  UNL1        0.0516
@<TRIPOS>BOND
     1     2     3    2
     2     3     4   am
     3     4     1    1
     4     1    36    1
     5    36    37    1
     6    37    38    2
     7    38    39    1
     8    39    40    2
     9    40    41    1
    10    41    42    2
    11    42    43    1
    12    43    44    2
    13    44    45    1
    14     1    22    1
    15    22    23    2
    16    22    24   am
    17    24    25    1
    18    25    26    1
    19    26    27    1
    20    27    30    1
    21    30    31    1
    22    31    32    1
    23    32    33    1
    24    33    34    1
    25    34    35    1
    26    27    28    1
    27    28    29    1
    28     3     5   am
    29     5     6    1
    30     6     7    1
    31     7     8    1
    32     8    12    1
    33    12    13   am
    34    13    14    2
    35    13    15    1
    36    15    16    2
    37    16    17    1
    38    17    18    1
    39    18    19    2
    40    19    20    1
    41    20    21    2
    42     8     9    1
    43     9    10    1
    44    45    37    1
    45    29    24    1
    46    10     5    1
    47    44    40    1
    48    35    30    1
    49    21    12    1
    50    21    16    1
    51     4    11    1
@<TRIPOS>MOLECULE
*****
 45 51 0 0 0
SMALL
GASTEIGER

@<TRIPOS>ATOM
      1 C          61.4723   94.1822    1.3434 C.3     1  UNL1        0.1540
      2 O          58.7949   93.3232    2.3893 O.2     1  UNL1       -0.2526
      3 C          60.0503   92.7921    3.0155 C.2     1  UNL1        0.3043
      4 N          61.3890   93.2217    2.4925 N.am    1  UNL1       -0.2822
      5 N          59.9670   91.8316    4.1646 N.am    1  UNL1       -0.2641
      6 C          61.2224   91.3006    4.7907 C.3     1  UNL1        0.0967
      7 C          61.1391   90.3400    5.9398 C.3     1  UNL1        0.0418
      8 C          59.8003   89.9106    6.4627 C.3     1  UNL1        0.0848
      9 C          58.5450   90.4416    5.8366 C.3     1  UNL1        0.0418
     10 C          58.6284   91.4022    4.6875 C.3     1  UNL1        0.0967
     11 H          62.2129   92.8731    2.9035 H       1  UNL1        0.1514
     12 N          59.7171   88.9500    7.6118 N.am    1  UNL1       -0.2422
     13 C          59.3714   87.4933    7.5199 C.2     1  UNL1        0.3310
     14 O          59.0485   86.7413    6.2629 O.2     1  UNL1       -0.2501
     15 N          59.4055   86.9205    8.9059 N.am    1  UNL1       -0.1647
     16 C          59.7722   88.0232    9.8543 C.2     1  UNL1        0.0706
     17 C          59.9557   88.0473   11.3429 C.3     1  UNL1        0.0705
     18 C          60.3317   89.3257   12.0317 C.2     1  UNL1       -0.0199
     19 C          60.5242   90.5800   11.2318 C.2     1  UNL1       -0.0029
     20 C          60.3407   90.5560    9.7433 C.2     1  UNL1        0.0156
     21 C          59.9648   89.2776    9.0545 C.2     1  UNL1        0.0668
     22 C          60.2404   94.8966    0.8722 C.2     1  UNL1        0.2439
     23 O          59.7960   96.1558    1.5558 O.2     1  UNL1       -0.2731
     24 N          59.4529   94.3520   -0.2824 N.am    1  UNL1       -0.2781
     25 C          59.8973   93.0929   -0.9659 C.3     1  UNL1        0.0948
     26 C          59.1099   92.5482   -2.1205 C.3     1  UNL1        0.0375
     27 C          57.8779   93.2626   -2.5917 C.3     1  UNL1        0.0609
     28 C          57.4335   94.5217   -1.9082 C.3     1  UNL1        0.0375
     29 C          58.2210   95.0664   -0.7535 C.3     1  UNL1        0.0948
     30 N          57.0905   92.7179   -3.7463 N.3     1  UNL1       -0.2738
     31 C          57.0820   93.4452   -5.0581 C.3     1  UNL1        0.0720
     32 C          56.2945   92.9003   -6.2127 C.3     1  UNL1        0.0174
     33 C          55.5155   91.6282   -6.0554 C.3     1  UNL1        0.0029
     34 C          55.5240   90.9009   -4.7436 C.3     1  UNL1        0.0174
     35 C          56.3114   91.4457   -3.5891 C.3     1  UNL1        0.0720
     36 C          62.7875   94.4284    0.6654 C.3     1  UNL1        0.0514
     37 C          62.8491   94.5567   -0.8279 C.2     1  UNL1       -0.0375
     38 C          62.4460   95.8421   -1.4874 C.2     1  UNL1       -0.0065
     39 C          62.5075   95.9704   -2.9807 C.2     1  UNL1        0.0200
     40 C          62.9722   94.8132   -3.8143 C.2     1  UNL1        0.1007
     41 N          63.1366   94.6455   -5.2958 N.2     1  UNL1       -0.1482
     42 N          63.6413   93.2563   -5.5518 N.2     1  UNL1       -0.1467
     43 C          63.7889   92.5655   -4.2286 C.2     1  UNL1        0.1197
     44 C          63.3754   93.5277   -3.1547 C.2     1  UNL1        0.0222
     45 C          63.3138   93.3995   -1.6615 C.3     1  UNL1        0.0516
@<TRIPOS>BOND
     1     2     3    2
     2     3     4   am
     3     4     1    1
     4     1    36    1
     5    36    37    1
     6    37    38    2
     7    38    39    1
     8    39    40    2
     9    40    41    1
    10    41    42    2
    11    42    43    1
    12    43    44    2
    13    44    45    1
    14     1    22    1
    15    22    23    2
    16    22    24   am
    17    24    25    1
    18    25    26    1
    19    26    27    1
    20    27    30    1
    21    30    31    1
    22    31    32    1
    23    32    33    1
    24    33    34    1
    25    34    35    1
    26    27    28    1
    27    28    29    1
    28     3     5   am
    29     5     6    1
    30     6     7    1
    31     7     8    1
    32     8    12    1
    33    12    13   am
    34    13    14    2
    35    13    15    1
    36    15    16    2
    37    16    17    1
    38    17    18    1
    39    18    19    2
    40    19    20    1
    41    20    21    2
    42     8     9    1
    43     9    10    1
    44    45    37    1
    45    29    24    1
    46    10     5    1
    47    44    40    1
    48    35    30    1
    49    21    12    1
    50    21    16    1
    51     4    11    1
