@<TRIPOS>MOLECULE
*****
 25 27 0 0 0
SMALL
GASTEIGER

@<TRIPOS>ATOM
      1 C          64.1083   91.0035   13.0271 C.ar    1  UNL1        0.1386
      2 C          63.6884   91.5290   11.6864 C.ar    1  UNL1        0.0369
      3 C          62.9614   90.6362   10.7251 C.ar    1  UNL1        0.0047
      4 C          62.6541   89.2179   11.1045 C.ar    1  UNL1        0.0195
      5 C          63.0739   88.6924   12.4452 C.ar    1  UNL1        0.0047
      6 C          63.8010   89.5852   13.4065 C.ar    1  UNL1        0.0369
      7 C          61.9270   88.3251   10.1431 C.ar    1  UNL1        0.1011
      8 C          62.2247   86.8553   10.1126 C.ar    1  UNL1        0.0258
      9 C          61.4976   85.9624    9.1512 C.ar    1  UNL1        0.0638
     10 C          60.4727   86.5395    8.2203 C.ar    1  UNL1        0.2765
     11 O          59.7456   85.6468    7.2589 O.2     1  UNL1       -0.2655
     12 N          60.1750   88.0094    8.2508 N.ar    1  UNL1       -0.2146
     13 C          59.1501   88.5865    7.3198 C.3     1  UNL1        0.1571
     14 N          60.9021   88.9021    9.2121 N.ar    1  UNL1       -0.1668
     15 O          64.8354   91.8963   13.9886 O.3     1  UNL1       -0.4754
     16 C          66.1369   91.4518   14.5872 C.3     1  UNL1        0.2067
     17 C          68.4389   92.5886   14.9854 C.3     1  UNL1        0.0053
     18 C          67.4311   91.9880   14.0508 C.3     1  UNL1        0.0597
     19 C          67.7174   91.9236   12.5798 C.3     1  UNL1        0.0757
     20 N          67.1895   92.9891   11.6656 N.3     1  UNL1       -0.2738
     21 C          66.2977   94.1283   12.0617 C.3     1  UNL1        0.0721
     22 C          66.0178   94.9459   10.8357 C.3     1  UNL1        0.0187
     23 C          66.7366   94.3119    9.6818 C.3     1  UNL1        0.0174
     24 C          67.4607   93.1026   10.1947 C.3     1  UNL1        0.0576
     25 C          68.3075   92.1704    9.3798 C.3     1  UNL1        0.0173
@<TRIPOS>BOND
     1    18    17    1
     2    18    16    1
     3    16    15    1
     4    15     1    1
     5     1     2   ar
     6     2     3   ar
     7     3     4   ar
     8     4     7    1
     9     7     8   ar
    10     8     9   ar
    11     9    10   ar
    12    10    11    2
    13    10    12   ar
    14    12    13    1
    15    12    14   ar
    16     4     5   ar
    17     5     6   ar
    18    18    19    1
    19    19    20    1
    20    20    21    1
    21    21    22    1
    22    22    23    1
    23    23    24    1
    24    24    25    1
    25     6     1   ar
    26    24    20    1
    27    14     7   ar
@<TRIPOS>MOLECULE
*****
 25 27 0 0 0
SMALL
GASTEIGER

@<TRIPOS>ATOM
      1 C          63.9652   90.9009   12.7408 C.ar    1  UNL1        0.1386
      2 C          63.6395   89.4986   13.1618 C.ar    1  UNL1        0.0369
      3 C          62.9496   88.5700   12.2070 C.ar    1  UNL1        0.0047
      4 C          62.5854   89.0437   10.8312 C.ar    1  UNL1        0.0195
      5 C          62.9111   90.4461   10.4102 C.ar    1  UNL1        0.0047
      6 C          63.6010   91.3747   11.3650 C.ar    1  UNL1        0.0369
      7 C          61.8955   88.1151    9.8763 C.ar    1  UNL1        0.1011
      8 C          60.4602   88.3484    9.5082 C.ar    1  UNL1        0.0258
      9 C          59.7703   87.4197    8.5534 C.ar    1  UNL1        0.0638
     10 C          60.5157   86.2578    7.9667 C.ar    1  UNL1        0.2765
     11 O          59.8259   85.3291    7.0119 O.2     1  UNL1       -0.2655
     12 N          61.9510   86.0245    8.3348 N.ar    1  UNL1       -0.2146
     13 C          62.6965   84.8625    7.7481 C.3     1  UNL1        0.1571
     14 N          62.6409   86.9531    9.2896 N.ar    1  UNL1       -0.1668
     15 O          64.6551   91.8296   13.6957 O.3     1  UNL1       -0.4754
     16 C          65.9191   91.3993   14.3791 C.3     1  UNL1        0.2067
     17 C          68.1812   92.5472   14.9406 C.3     1  UNL1        0.0053
     18 C          67.2392   91.9559   13.9343 C.3     1  UNL1        0.0597
     19 C          67.6170   91.9213   12.4830 C.3     1  UNL1        0.0757
     20 N          67.1339   92.9972   11.5563 N.3     1  UNL1       -0.2738
     21 C          66.2258   94.1337   11.9221 C.3     1  UNL1        0.0721
     22 C          66.0047   94.9645   10.6929 C.3     1  UNL1        0.0187
     23 C          66.7760   94.3413    9.5674 C.3     1  UNL1        0.0174
     24 C          67.4739   93.1255   10.1010 C.3     1  UNL1        0.0576
     25 C          68.3568   92.2005    9.3170 C.3     1  UNL1        0.0173
@<TRIPOS>BOND
     1    18    17    1
     2    18    16    1
     3    16    15    1
     4    15     1    1
     5     1     2   ar
     6     2     3   ar
     7     3     4   ar
     8     4     7    1
     9     7     8   ar
    10     8     9   ar
    11     9    10   ar
    12    10    11    2
    13    10    12   ar
    14    12    13    1
    15    12    14   ar
    16     4     5   ar
    17     5     6   ar
    18    18    19    1
    19    19    20    1
    20    20    21    1
    21    21    22    1
    22    22    23    1
    23    23    24    1
    24    24    25    1
    25     6     1   ar
    26    24    20    1
    27    14     7   ar
@<TRIPOS>MOLECULE
*****
 25 27 0 0 0
SMALL
GASTEIGER

@<TRIPOS>ATOM
      1 C          63.8013   89.7952   13.4463 C.ar    1  UNL1        0.1386
      2 C          64.4162   89.1047   14.6275 C.ar    1  UNL1        0.0369
      3 C          64.3918   87.6076   14.7173 C.ar    1  UNL1        0.0047
      4 C          63.7526   86.8010   13.6261 C.ar    1  UNL1        0.0195
      5 C          63.1378   87.4915   12.4450 C.ar    1  UNL1        0.0047
      6 C          63.1621   88.9886   12.3551 C.ar    1  UNL1        0.0369
      7 C          63.7283   85.3039   13.7160 C.ar    1  UNL1        0.1011
      8 C          63.8733   84.6301   15.0482 C.ar    1  UNL1        0.0258
      9 C          63.8490   83.1329   15.1382 C.ar    1  UNL1        0.0638
     10 C          63.6797   82.3096   13.8958 C.ar    1  UNL1        0.2765
     11 O          63.6554   80.8125   13.9856 O.2     1  UNL1       -0.2655
     12 N          63.5348   82.9835   12.5635 N.ar    1  UNL1       -0.2146
     13 C          63.3656   82.1602   11.3211 C.3     1  UNL1        0.1571
     14 N          63.5591   84.4806   12.4736 N.ar    1  UNL1       -0.1668
     15 O          63.8256   91.2923   13.3564 O.3     1  UNL1       -0.4754
     16 C          65.1340   92.0150   13.2314 C.3     1  UNL1        0.2067
     17 C          64.7573   92.2569   10.6722 C.3     1  UNL1        0.0053
     18 C          65.5857   92.5227   11.8941 C.3     1  UNL1        0.0597
     19 C          66.8657   93.2962   11.7788 C.3     1  UNL1        0.0757
     20 N          67.0714   94.2392   10.6306 N.3     1  UNL1       -0.2738
     21 C          66.6039   95.6629   10.5644 C.3     1  UNL1        0.0721
     22 C          67.0242   96.2277    9.2399 C.3     1  UNL1        0.0187
     23 C          67.7515   95.1529    8.4875 C.3     1  UNL1        0.0174
     24 C          67.7806   93.9239    9.3470 C.3     1  UNL1        0.0576
     25 C          68.4086   92.6104    8.9863 C.3     1  UNL1        0.0173
@<TRIPOS>BOND
     1    18    17    1
     2    18    16    1
     3    16    15    1
     4    15     1    1
     5     1     2   ar
     6     2     3   ar
     7     3     4   ar
     8     4     7    1
     9     7     8   ar
    10     8     9   ar
    11     9    10   ar
    12    10    11    2
    13    10    12   ar
    14    12    13    1
    15    12    14   ar
    16     4     5   ar
    17     5     6   ar
    18    18    19    1
    19    19    20    1
    20    20    21    1
    21    21    22    1
    22    22    23    1
    23    23    24    1
    24    24    25    1
    25     6     1   ar
    26    24    20    1
    27    14     7   ar
@<TRIPOS>MOLECULE
*****
 25 27 0 0 0
SMALL
GASTEIGER

@<TRIPOS>ATOM
      1 C          63.6769   89.8066   13.2562 C.ar    1  UNL1        0.1386
      2 C          63.0839   88.9389   12.1860 C.ar    1  UNL1        0.0369
      3 C          63.0917   87.4469   12.3402 C.ar    1  UNL1        0.0047
      4 C          63.6926   86.8226   13.5647 C.ar    1  UNL1        0.0195
      5 C          64.2856   87.6903   14.6348 C.ar    1  UNL1        0.0047
      6 C          64.2778   89.1823   14.4806 C.ar    1  UNL1        0.0369
      7 C          63.7004   85.3305   13.7189 C.ar    1  UNL1        0.1011
      8 C          64.1181   84.7132   15.0205 C.ar    1  UNL1        0.0258
      9 C          64.1259   83.2211   15.1748 C.ar    1  UNL1        0.0638
     10 C          63.7160   82.3464   14.0272 C.ar    1  UNL1        0.2765
     11 O          63.7237   80.8544   14.1814 O.2     1  UNL1       -0.2655
     12 N          63.2982   82.9638   12.7255 N.ar    1  UNL1       -0.2146
     13 C          62.8882   82.0891   11.5780 C.3     1  UNL1        0.1571
     14 N          63.2904   84.4558   12.5714 N.ar    1  UNL1       -0.1668
     15 O          63.6691   91.2987   13.1020 O.3     1  UNL1       -0.4754
     16 C          64.7015   91.9695   12.2452 C.3     1  UNL1        0.2067
     17 C          66.1920   92.5960   14.2789 C.3     1  UNL1        0.0053
     18 C          65.7372   92.8545   12.8731 C.3     1  UNL1        0.0597
     19 C          66.3181   93.9979   12.0952 C.3     1  UNL1        0.0757
     20 N          67.0556   93.7365   10.8155 N.3     1  UNL1       -0.2738
     21 C          67.7089   92.4447   10.4224 C.3     1  UNL1        0.0721
     22 C          68.3264   92.6307    9.0682 C.3     1  UNL1        0.0187
     23 C          68.0546   94.0376    8.6242 C.3     1  UNL1        0.0174
     24 C          67.2693   94.7209    9.7041 C.3     1  UNL1        0.0576
     25 C          66.7830   96.1396    9.6773 C.3     1  UNL1        0.0173
@<TRIPOS>BOND
     1    18    17    1
     2    18    16    1
     3    16    15    1
     4    15     1    1
     5     1     2   ar
     6     2     3   ar
     7     3     4   ar
     8     4     7    1
     9     7     8   ar
    10     8     9   ar
    11     9    10   ar
    12    10    11    2
    13    10    12   ar
    14    12    13    1
    15    12    14   ar
    16     4     5   ar
    17     5     6   ar
    18    18    19    1
    19    19    20    1
    20    20    21    1
    21    21    22    1
    22    22    23    1
    23    23    24    1
    24    24    25    1
    25     6     1   ar
    26    24    20    1
    27    14     7   ar
@<TRIPOS>MOLECULE
*****
 25 27 0 0 0
SMALL
GASTEIGER

@<TRIPOS>ATOM
      1 C          63.5466   89.4507   13.1531 C.ar    1  UNL1        0.1386
      2 C          64.1257   88.4861   14.1451 C.ar    1  UNL1        0.0369
      3 C          63.9931   87.0090   13.9202 C.ar    1  UNL1        0.0047
      4 C          63.2814   86.4966   12.7033 C.ar    1  UNL1        0.0195
      5 C          62.7024   87.4612   11.7113 C.ar    1  UNL1        0.0047
      6 C          62.8350   88.9383   11.9362 C.ar    1  UNL1        0.0369
      7 C          63.1489   85.0194   12.4784 C.ar    1  UNL1        0.1011
      8 C          63.5594   84.4208   11.1658 C.ar    1  UNL1        0.0258
      9 C          63.4268   82.9436   10.9409 C.ar    1  UNL1        0.0638
     10 C          62.8837   82.0652   12.0287 C.ar    1  UNL1        0.2765
     11 O          62.7511   80.5881   11.8038 O.2     1  UNL1       -0.2655
     12 N          62.4731   82.6639   13.3414 N.ar    1  UNL1       -0.2146
     13 C          61.9300   81.7854   14.4292 C.3     1  UNL1        0.1571
     14 N          62.6057   84.1410   13.5662 N.ar    1  UNL1       -0.1668
     15 O          63.6792   90.9279   13.3780 O.3     1  UNL1       -0.4754
     16 C          65.0269   91.5812   13.2951 C.3     1  UNL1        0.2067
     17 C          64.6190   92.1322   10.7891 C.3     1  UNL1        0.0053
     18 C          65.4535   92.2625   12.0287 C.3     1  UNL1        0.0597
     19 C          66.7146   93.0743   12.0019 C.3     1  UNL1        0.0757
     20 N          66.9890   93.9959   10.8507 N.3     1  UNL1       -0.2738
     21 C          66.5641   95.4309   10.7494 C.3     1  UNL1        0.0721
     22 C          67.0490   95.9662    9.4347 C.3     1  UNL1        0.0187
     23 C          67.7736   94.8620    8.7235 C.3     1  UNL1        0.0174
     24 C          67.7365   93.6443    9.5986 C.3     1  UNL1        0.0576
     25 C          68.3408   92.3094    9.2780 C.3     1  UNL1        0.0173
@<TRIPOS>BOND
     1    18    17    1
     2    18    16    1
     3    16    15    1
     4    15     1    1
     5     1     2   ar
     6     2     3   ar
     7     3     4   ar
     8     4     7    1
     9     7     8   ar
    10     8     9   ar
    11     9    10   ar
    12    10    11    2
    13    10    12   ar
    14    12    13    1
    15    12    14   ar
    16     4     5   ar
    17     5     6   ar
    18    18    19    1
    19    19    20    1
    20    20    21    1
    21    21    22    1
    22    22    23    1
    23    23    24    1
    24    24    25    1
    25     6     1   ar
    26    24    20    1
    27    14     7   ar
@<TRIPOS>MOLECULE
*****
 25 27 0 0 0
SMALL
GASTEIGER

@<TRIPOS>ATOM
      1 C          63.3269   86.8474   16.1315 C.ar    1  UNL1        0.1386
      2 C          63.0360   88.1748   16.7666 C.ar    1  UNL1        0.0369
      3 C          63.5579   89.4351   16.1428 C.ar    1  UNL1        0.0047
      4 C          64.3708   89.3680   14.8840 C.ar    1  UNL1        0.0195
      5 C          64.6618   88.0406   14.2489 C.ar    1  UNL1        0.0047
      6 C          64.1399   86.7803   14.8727 C.ar    1  UNL1        0.0369
      7 C          64.8928   90.6284   14.2602 C.ar    1  UNL1        0.1011
      8 C          64.4157   91.0458   12.9007 C.ar    1  UNL1        0.0258
      9 C          64.9377   92.3062   12.2770 C.ar    1  UNL1        0.0638
     10 C          65.9366   93.1492   13.0127 C.ar    1  UNL1        0.2765
     11 O          66.4586   94.4096   12.3891 O.2     1  UNL1       -0.2655
     12 N          66.4137   92.7318   14.3723 N.ar    1  UNL1       -0.2146
     13 C          67.4127   93.5748   15.1081 C.3     1  UNL1        0.1571
     14 N          65.8917   91.4714   14.9960 N.ar    1  UNL1       -0.1668
     15 O          62.8050   85.5870   16.7553 O.3     1  UNL1       -0.4754
     16 C          62.0853   84.5756   15.9131 C.3     1  UNL1        0.2067
     17 C          64.3194   83.3953   15.3081 C.3     1  UNL1        0.0053
     18 C          62.8636   83.6369   15.0395 C.3     1  UNL1        0.0597
     19 C          62.1859   82.9399   13.8971 C.3     1  UNL1        0.0757
     20 N          62.8143   82.9471   12.5351 N.3     1  UNL1       -0.2738
     21 C          63.4841   81.7831   11.8669 C.3     1  UNL1        0.0721
     22 C          63.9669   82.2362   10.5210 C.3     1  UNL1        0.0187
     23 C          63.5955   83.6803   10.3574 C.3     1  UNL1        0.0174
     24 C          62.8832   84.1197   11.6022 C.3     1  UNL1        0.0576
     25 C          62.3358   85.4908   11.8674 C.3     1  UNL1        0.0173
@<TRIPOS>BOND
     1    18    17    1
     2    18    16    1
     3    16    15    1
     4    15     1    1
     5     1     2   ar
     6     2     3   ar
     7     3     4   ar
     8     4     7    1
     9     7     8   ar
    10     8     9   ar
    11     9    10   ar
    12    10    11    2
    13    10    12   ar
    14    12    13    1
    15    12    14   ar
    16     4     5   ar
    17     5     6   ar
    18    18    19    1
    19    19    20    1
    20    20    21    1
    21    21    22    1
    22    22    23    1
    23    23    24    1
    24    24    25    1
    25     6     1   ar
    26    24    20    1
    27    14     7   ar
@<TRIPOS>MOLECULE
*****
 25 27 0 0 0
SMALL
GASTEIGER

@<TRIPOS>ATOM
      1 C          64.1029   88.4061   13.9632 C.ar    1  UNL1        0.1386
      2 C          63.3769   88.0701   12.6944 C.ar    1  UNL1        0.0369
      3 C          63.1243   86.6367   12.3319 C.ar    1  UNL1        0.0047
      4 C          63.5976   85.5392   13.2383 C.ar    1  UNL1        0.0195
      5 C          64.3236   85.8752   14.5072 C.ar    1  UNL1        0.0047
      6 C          64.5762   87.3086   14.8696 C.ar    1  UNL1        0.0369
      7 C          63.3449   84.1057   12.8758 C.ar    1  UNL1        0.1011
      8 C          64.0146   83.5066   11.6747 C.ar    1  UNL1        0.0258
      9 C          63.7619   82.0732   11.3122 C.ar    1  UNL1        0.0638
     10 C          62.8396   81.2388   12.1508 C.ar    1  UNL1        0.2765
     11 O          62.5869   79.8054   11.7883 O.2     1  UNL1       -0.2655
     12 N          62.1699   81.8380   13.3519 N.ar    1  UNL1       -0.2146
     13 C          61.2476   81.0037   14.1905 C.3     1  UNL1        0.1571
     14 N          62.4226   83.2714   13.7144 N.ar    1  UNL1       -0.1668
     15 O          64.3555   89.8396   14.3258 O.3     1  UNL1       -0.4754
     16 C          63.6504   90.9362   13.5841 C.3     1  UNL1        0.2067
     17 C          64.0377   91.3104   11.0424 C.3     1  UNL1        0.0053
     18 C          64.3483   91.6563   12.4685 C.3     1  UNL1        0.0597
     19 C          65.3568   92.7224   12.7791 C.3     1  UNL1        0.0757
     20 N          66.3195   92.5363   13.9142 N.3     1  UNL1       -0.2738
     21 C          66.0544   92.8536   15.3561 C.3     1  UNL1        0.0721
     22 C          67.2874   92.5136   16.1398 C.3     1  UNL1        0.0187
     23 C          68.3145   91.9863   15.1821 C.3     1  UNL1        0.0174
     24 C          67.7163   92.0003   13.8067 C.3     1  UNL1        0.0576
     25 C          68.3957   91.5563   12.5452 C.3     1  UNL1        0.0173
@<TRIPOS>BOND
     1    18    17    1
     2    18    16    1
     3    16    15    1
     4    15     1    1
     5     1     2   ar
     6     2     3   ar
     7     3     4   ar
     8     4     7    1
     9     7     8   ar
    10     8     9   ar
    11     9    10   ar
    12    10    11    2
    13    10    12   ar
    14    12    13    1
    15    12    14   ar
    16     4     5   ar
    17     5     6   ar
    18    18    19    1
    19    19    20    1
    20    20    21    1
    21    21    22    1
    22    22    23    1
    23    23    24    1
    24    24    25    1
    25     6     1   ar
    26    24    20    1
    27    14     7   ar
@<TRIPOS>MOLECULE
*****
 25 27 0 0 0
SMALL
GASTEIGER

@<TRIPOS>ATOM
      1 C          63.3148   87.9193   16.1079 C.ar    1  UNL1        0.1386
      2 C          63.1071   89.2930   16.6735 C.ar    1  UNL1        0.0369
      3 C          63.6973   90.4859   15.9818 C.ar    1  UNL1        0.0047
      4 C          64.4952   90.3052   14.7245 C.ar    1  UNL1        0.0195
      5 C          64.7028   88.9316   14.1589 C.ar    1  UNL1        0.0047
      6 C          64.1126   87.7386   14.8506 C.ar    1  UNL1        0.0369
      7 C          65.0854   91.4983   14.0328 C.ar    1  UNL1        0.1011
      8 C          65.9254   92.4728   14.8040 C.ar    1  UNL1        0.0258
      9 C          66.5156   93.6658   14.1123 C.ar    1  UNL1        0.0638
     10 C          66.2658   93.8843   12.6494 C.ar    1  UNL1        0.2765
     11 O          66.8560   95.0772   11.9577 O.2     1  UNL1       -0.2655
     12 N          65.4257   92.9097   11.8783 N.ar    1  UNL1       -0.2146
     13 C          65.1759   93.1281   10.4155 C.3     1  UNL1        0.1571
     14 N          64.8356   91.7167   12.5700 N.ar    1  UNL1       -0.1668
     15 O          62.7245   86.7263   16.7996 O.3     1  UNL1       -0.4754
     16 C          63.4321   85.4046   16.7502 C.3     1  UNL1        0.2067
     17 C          64.8977   84.4908   14.8092 C.3     1  UNL1        0.0053
     18 C          63.5528   84.6666   15.4498 C.3     1  UNL1        0.0597
     19 C          62.3285   84.1045   14.7900 C.3     1  UNL1        0.0757
     20 N          62.4542   82.9654   13.8222 N.3     1  UNL1       -0.2738
     21 C          62.3625   81.5069   14.1604 C.3     1  UNL1        0.0721
     22 C          62.5452   80.7249   12.8935 C.3     1  UNL1        0.0187
     23 C          62.7498   81.7002   11.7723 C.3     1  UNL1        0.0174
     24 C          62.6935   83.0848   12.3463 C.3     1  UNL1        0.0576
     25 C          62.8492   84.3643   11.5790 C.3     1  UNL1        0.0173
@<TRIPOS>BOND
     1    18    17    1
     2    18    16    1
     3    16    15    1
     4    15     1    1
     5     1     2   ar
     6     2     3   ar
     7     3     4   ar
     8     4     7    1
     9     7     8   ar
    10     8     9   ar
    11     9    10   ar
    12    10    11    2
    13    10    12   ar
    14    12    13    1
    15    12    14   ar
    16     4     5   ar
    17     5     6   ar
    18    18    19    1
    19    19    20    1
    20    20    21    1
    21    21    22    1
    22    22    23    1
    23    23    24    1
    24    24    25    1
    25     6     1   ar
    26    24    20    1
    27    14     7   ar
@<TRIPOS>MOLECULE
*****
 25 27 0 0 0
SMALL
GASTEIGER

@<TRIPOS>ATOM
      1 C          62.1714   89.5464   10.2681 C.ar    1  UNL1        0.1386
      2 C          62.4717   88.9111   11.5933 C.ar    1  UNL1        0.0369
      3 C          63.3842   89.5987   12.5651 C.ar    1  UNL1        0.0047
      4 C          63.9966   90.9216   12.2117 C.ar    1  UNL1        0.0195
      5 C          63.6963   91.5570   10.8865 C.ar    1  UNL1        0.0047
      6 C          62.7838   90.8694    9.9147 C.ar    1  UNL1        0.0369
      7 C          64.9092   91.6092   13.1836 C.ar    1  UNL1        0.1011
      8 C          66.1811   92.2403   12.7002 C.ar    1  UNL1        0.0258
      9 C          67.0938   92.9279   13.6721 C.ar    1  UNL1        0.0638
     10 C          66.7343   92.9843   15.1273 C.ar    1  UNL1        0.2765
     11 O          67.6468   93.6718   16.0991 O.2     1  UNL1       -0.2655
     12 N          65.4622   92.3531   15.6106 N.ar    1  UNL1       -0.2146
     13 C          65.1028   92.4094   17.0658 C.3     1  UNL1        0.1571
     14 N          64.5497   91.6655   14.6388 N.ar    1  UNL1       -0.1668
     15 O          61.2588   88.8589    9.2962 O.3     1  UNL1       -0.4754
     16 C          60.7358   87.4864    9.6007 C.3     1  UNL1        0.2067
     17 C          60.4535   85.7708    7.6702 C.3     1  UNL1        0.0053
     18 C          61.2416   86.3030    8.8302 C.3     1  UNL1        0.0597
     19 C          62.5355   85.6518    9.2197 C.3     1  UNL1        0.0757
     20 N          62.6852   85.0344   10.5785 N.3     1  UNL1       -0.2738
     21 C          62.0989   85.5599   11.8552 C.3     1  UNL1        0.0721
     22 C          62.4989   84.6334   12.9649 C.3     1  UNL1        0.0187
     23 C          63.3324   83.5351   12.3740 C.3     1  UNL1        0.0174
     24 C          63.4476   83.7830   10.8991 C.3     1  UNL1        0.0576
     25 C          64.1940   82.9293    9.9173 C.3     1  UNL1        0.0173
@<TRIPOS>BOND
     1    18    17    1
     2    18    16    1
     3    16    15    1
     4    15     1    1
     5     1     2   ar
     6     2     3   ar
     7     3     4   ar
     8     4     7    1
     9     7     8   ar
    10     8     9   ar
    11     9    10   ar
    12    10    11    2
    13    10    12   ar
    14    12    13    1
    15    12    14   ar
    16     4     5   ar
    17     5     6   ar
    18    18    19    1
    19    19    20    1
    20    20    21    1
    21    21    22    1
    22    22    23    1
    23    23    24    1
    24    24    25    1
    25     6     1   ar
    26    24    20    1
    27    14     7   ar
