@<TRIPOS>MOLECULE
*****
 42 46 0 0 0
SMALL
GASTEIGER

@<TRIPOS>ATOM
      1 C          59.5794   92.5216    4.1236 C.3     1  UNL1        0.0758
      2 C          60.7071   91.6162    4.5216 C.3     1  UNL1        0.0370
      3 C          60.4339   90.4004    5.3565 C.3     1  UNL1        0.0741
      4 N          59.0329   90.0900    5.7935 N.3     1  UNL1       -0.2688
      5 C          57.9052   90.9954    5.3955 C.3     1  UNL1        0.0741
      6 C          58.1784   92.2112    4.5606 C.3     1  UNL1        0.0370
      7 N          60.1178   94.8527    0.9571 N.am    1  UNL1       -0.2849
      8 C          59.8446   93.6368    1.7921 C.2     1  UNL1        0.3010
      9 O          59.5633   92.3203    1.1304 O.2     1  UNL1       -0.2528
     10 N          59.8526   93.7374    3.2887 N.am    1  UNL1       -0.2905
     11 H          60.3024   95.7167    1.3914 H       1  UNL1        0.1513
     12 H          60.0373   94.6015    3.7229 H       1  UNL1        0.1509
     13 C          60.1098   94.7520   -0.5394 C.3     1  UNL1        0.1181
     14 C          61.3319   94.2733   -1.2655 C.ar    1  UNL1       -0.0026
     15 C          62.6532   94.2223   -0.5572 C.ar    1  UNL1       -0.0026
     16 C          63.8753   93.7436   -1.2833 C.ar    1  UNL1       -0.0003
     17 C          63.7762   93.3159   -2.7176 C.ar    1  UNL1       -0.0000
     18 C          62.4550   93.3670   -3.4259 C.ar    1  UNL1       -0.0003
     19 C          61.2328   93.8457   -2.6998 C.ar    1  UNL1       -0.0026
     20 C          58.8796   95.1301   -1.3100 C.3     1  UNL1        0.1312
     21 C          55.6890   95.8152   -1.3288 C.3     1  UNL1        0.0718
     22 C          56.2995   94.4542   -1.4870 C.ar    1  UNL1        0.1209
     23 N          55.5506   93.1692   -1.6816 N.ar    1  UNL1       -0.2293
     24 C          56.5543   92.0601   -1.7932 C.ar    1  UNL1        0.1188
     25 C          57.9235   92.6597   -1.6676 C.ar    1  UNL1        0.0978
     26 N          57.7660   94.1393   -1.4783 N.ar    1  UNL1       -0.3116
     27 C          58.7597   88.8741    6.6285 C.3     1  UNL1        0.1007
     28 C          59.6878   88.5099    7.7491 C.ar    1  UNL1        0.0129
     29 C          60.1933   89.4390    8.8126 C.ar    1  UNL1        0.0176
     30 C          61.0912   88.6559    9.7238 C.ar    1  UNL1        0.0799
     31 N          61.1408   87.2426    9.2234 N.ar    1  UNL1       -0.3038
     32 C          60.2734   87.1524    8.0030 C.ar    1  UNL1        0.0772
     33 C          61.9207   86.1173    9.8360 C.ar    1  UNL1        0.0640
     34 C          62.8176   85.2732    8.9798 C.ar    1  UNL1        0.0175
     35 C          63.5976   84.1479    9.5924 C.ar    1  UNL1        0.0053
     36 C          63.4806   83.8666   11.0610 C.ar    1  UNL1        0.0715
     37 C          62.5837   84.7106   11.9172 C.ar    1  UNL1        0.0053
     38 C          61.8038   85.8360   11.3047 C.ar    1  UNL1        0.0175
     39 C          64.2606   82.7412   11.6735 C.3     1  UNL1        0.4186
     40 F          65.0406   81.6158   12.2860 F       1  UNL1       -0.1659
     41 F          64.4769   83.5637   12.9092 F       1  UNL1       -0.1659
     42 F          64.0443   81.9187   10.4379 F       1  UNL1       -0.1659
@<TRIPOS>BOND
     1    21    22    1
     2    22    23   ar
     3    23    24   ar
     4    24    25   ar
     5    25    26   ar
     6    26    20    1
     7    20    13    1
     8    13     7    1
     9     7     8   am
    10     8     9    2
    11     8    10   am
    12    10     1    1
    13     1     2    1
    14     2     3    1
    15     3     4    1
    16     4    27    1
    17    27    28    1
    18    28    29   ar
    19    29    30   ar
    20    30    31   ar
    21    31    33    1
    22    33    34   ar
    23    34    35   ar
    24    35    36   ar
    25    36    39    1
    26    39    40    1
    27    39    41    1
    28    39    42    1
    29    36    37   ar
    30    37    38   ar
    31    31    32   ar
    32     4     5    1
    33     5     6    1
    34    13    14    1
    35    14    15   ar
    36    15    16   ar
    37    16    17   ar
    38    17    18   ar
    39    18    19   ar
    40    26    22   ar
    41     6     1    1
    42    19    14   ar
    43    32    28   ar
    44    38    33   ar
    45     7    11    1
    46    10    12    1
@<TRIPOS>MOLECULE
*****
 42 46 0 0 0
SMALL
GASTEIGER

@<TRIPOS>ATOM
      1 C          59.4881   92.3601    4.0575 C.3     1  UNL1        0.0758
      2 C          58.0754   92.0324    4.4405 C.3     1  UNL1        0.0370
      3 C          57.7967   90.8909    5.3728 C.3     1  UNL1        0.0741
      4 N          58.9307   90.0771    5.9221 N.3     1  UNL1       -0.2688
      5 C          60.3434   90.4048    5.5391 C.3     1  UNL1        0.0741
      6 C          60.6222   91.5463    4.6068 C.3     1  UNL1        0.0370
      7 N          60.6112   94.3770    0.8292 N.am    1  UNL1       -0.2849
      8 C          60.3324   93.2354    1.7615 C.2     1  UNL1        0.3010
      9 O          60.6191   91.8276    1.3303 O.2     1  UNL1       -0.2528
     10 N          59.7669   93.5016    3.1251 N.am    1  UNL1       -0.2905
     11 H          60.4230   95.3009    1.1122 H       1  UNL1        0.1513
     12 H          59.5787   94.4256    3.4082 H       1  UNL1        0.1509
     13 C          61.1766   94.1107   -0.5344 C.3     1  UNL1        0.1181
     14 C          60.2562   93.8845   -1.6969 C.ar    1  UNL1       -0.0026
     15 C          59.1626   92.8622   -1.5999 C.ar    1  UNL1       -0.0026
     16 C          58.2422   92.6360   -2.7624 C.ar    1  UNL1       -0.0003
     17 C          58.4152   93.4319   -4.0220 C.ar    1  UNL1       -0.0000
     18 C          59.5086   94.4541   -4.1190 C.ar    1  UNL1       -0.0003
     19 C          60.4291   94.6804   -2.9565 C.ar    1  UNL1       -0.0026
     20 C          62.6626   94.0707   -0.7354 C.3     1  UNL1        0.1312
     21 C          63.9250   92.6667    1.9263 C.3     1  UNL1        0.0718
     22 C          64.1523   94.0818    1.4840 C.ar    1  UNL1        0.1209
     23 N          64.9999   95.1000    2.1874 N.ar    1  UNL1       -0.2293
     24 C          64.9434   96.3747    1.3987 C.ar    1  UNL1        0.1188
     25 C          64.0610   96.1443    0.2078 C.ar    1  UNL1        0.0978
     26 N          63.5721   94.7272    0.2605 N.ar    1  UNL1       -0.3116
     27 C          58.6519   88.9355    6.8544 C.3     1  UNL1        0.1007
     28 C          59.6545   88.5645    7.9066 C.ar    1  UNL1        0.0129
     29 C          60.2816   89.5012    8.8962 C.ar    1  UNL1        0.0176
     30 C          61.2207   88.7072    9.7551 C.ar    1  UNL1        0.0799
     31 N          61.1740   87.2798    9.2964 N.ar    1  UNL1       -0.3038
     32 C          60.2060   87.1916    8.1539 C.ar    1  UNL1        0.0772
     33 C          61.9576   86.1407    9.8780 C.ar    1  UNL1        0.0640
     34 C          62.8331   85.3036    8.9932 C.ar    1  UNL1        0.0175
     35 C          63.6167   84.1645    9.5748 C.ar    1  UNL1        0.0053
     36 C          63.5249   83.8624   11.0412 C.ar    1  UNL1        0.0715
     37 C          62.6494   84.6995   11.9260 C.ar    1  UNL1        0.0053
     38 C          61.8658   85.8386   11.3444 C.ar    1  UNL1        0.0175
     39 C          64.3085   82.7233   11.6228 C.3     1  UNL1        0.4186
     40 F          65.0922   81.5842   12.2045 F       1  UNL1       -0.1659
     41 F          63.9952   81.8910   10.4148 F       1  UNL1       -0.1659
     42 F          64.6219   83.5556   12.8308 F       1  UNL1       -0.1659
@<TRIPOS>BOND
     1    21    22    1
     2    22    23   ar
     3    23    24   ar
     4    24    25   ar
     5    25    26   ar
     6    26    20    1
     7    20    13    1
     8    13     7    1
     9     7     8   am
    10     8     9    2
    11     8    10   am
    12    10     1    1
    13     1     2    1
    14     2     3    1
    15     3     4    1
    16     4    27    1
    17    27    28    1
    18    28    29   ar
    19    29    30   ar
    20    30    31   ar
    21    31    33    1
    22    33    34   ar
    23    34    35   ar
    24    35    36   ar
    25    36    39    1
    26    39    40    1
    27    39    41    1
    28    39    42    1
    29    36    37   ar
    30    37    38   ar
    31    31    32   ar
    32     4     5    1
    33     5     6    1
    34    13    14    1
    35    14    15   ar
    36    15    16   ar
    37    16    17   ar
    38    17    18   ar
    39    18    19   ar
    40    26    22   ar
    41     6     1    1
    42    19    14   ar
    43    32    28   ar
    44    38    33   ar
    45     7    11    1
    46    10    12    1
@<TRIPOS>MOLECULE
*****
 42 46 0 0 0
SMALL
GASTEIGER

@<TRIPOS>ATOM
      1 C          61.8767   87.8596    9.8959 C.3     1  UNL1        0.0758
      2 C          61.3496   89.2639    9.8956 C.3     1  UNL1        0.0370
      3 C          60.2634   89.6570    8.9388 C.3     1  UNL1        0.0741
      4 N          59.7042   88.6458    7.9823 N.3     1  UNL1       -0.2688
      5 C          60.2313   87.2415    7.9826 C.3     1  UNL1        0.0741
      6 C          61.3176   86.8484    8.9394 C.3     1  UNL1        0.0370
      7 N          63.7697   86.0730   12.8918 N.am    1  UNL1       -0.2849
      8 C          62.6834   86.4662   11.9350 C.2     1  UNL1        0.3010
      9 O          61.3175   85.8591   12.0605 O.2     1  UNL1       -0.2528
     10 N          62.9630   87.4664   10.8527 N.am    1  UNL1       -0.2905
     11 H          64.6662   86.4714   12.8094 H       1  UNL1        0.1513
     12 H          63.8595   87.8648   10.7703 H       1  UNL1        0.1509
     13 C          63.4901   85.0727   13.9740 C.3     1  UNL1        0.1181
     14 C          63.0829   83.6743   13.6158 C.ar    1  UNL1       -0.0026
     15 C          63.5149   83.0790   12.3084 C.ar    1  UNL1       -0.0026
     16 C          63.1078   81.6805   11.9501 C.ar    1  UNL1       -0.0003
     17 C          62.2687   80.8772   12.8992 C.ar    1  UNL1       -0.0000
     18 C          61.8367   81.4724   14.2065 C.ar    1  UNL1       -0.0003
     19 C          62.2438   82.8710   14.5648 C.ar    1  UNL1       -0.0026
     20 C          63.6176   85.4710   15.4146 C.3     1  UNL1        0.1312
     21 C          62.5227   86.6563   18.2511 C.3     1  UNL1        0.0718
     22 C          63.0539   87.4641   17.1043 C.ar    1  UNL1        0.1209
     23 N          63.1752   88.9585   17.0599 N.ar    1  UNL1       -0.2293
     24 C          63.7534   89.3373   15.7287 C.ar    1  UNL1        0.1188
     25 C          63.9895   88.0770   14.9503 C.ar    1  UNL1        0.0978
     26 N          63.5572   86.9193   15.8005 N.ar    1  UNL1       -0.3116
     27 C          58.6179   89.0390    7.0255 C.3     1  UNL1        0.1007
     28 C          58.8740   90.0973    5.9939 C.ar    1  UNL1        0.0129
     29 C          57.8681   91.0781    5.4684 C.ar    1  UNL1        0.0176
     30 C          58.5533   91.9477    4.4564 C.ar    1  UNL1        0.0799
     31 N          59.9829   91.5043    4.3563 N.ar    1  UNL1       -0.3038
     32 C          60.1810   90.3608    5.3066 C.ar    1  UNL1        0.0772
     33 C          61.0302   92.1000    3.4629 C.ar    1  UNL1        0.0640
     34 C          62.4212   91.5387    3.4602 C.ar    1  UNL1        0.0175
     35 C          63.4686   92.1344    2.5669 C.ar    1  UNL1        0.0053
     36 C          63.1250   93.2913    1.6762 C.ar    1  UNL1        0.0715
     37 C          61.7340   93.8526    1.6788 C.ar    1  UNL1        0.0053
     38 C          60.6866   93.2569    2.5722 C.ar    1  UNL1        0.0175
     39 C          64.1724   93.8869    0.7828 C.3     1  UNL1        0.4186
     40 F          65.2198   94.4826   -0.1106 F       1  UNL1       -0.1659
     41 F          64.9845   92.6310    0.8975 F       1  UNL1       -0.1659
     42 F          63.3603   95.1429    0.6680 F       1  UNL1       -0.1659
@<TRIPOS>BOND
     1    21    22    1
     2    22    23   ar
     3    23    24   ar
     4    24    25   ar
     5    25    26   ar
     6    26    20    1
     7    20    13    1
     8    13     7    1
     9     7     8   am
    10     8     9    2
    11     8    10   am
    12    10     1    1
    13     1     2    1
    14     2     3    1
    15     3     4    1
    16     4    27    1
    17    27    28    1
    18    28    29   ar
    19    29    30   ar
    20    30    31   ar
    21    31    33    1
    22    33    34   ar
    23    34    35   ar
    24    35    36   ar
    25    36    39    1
    26    39    40    1
    27    39    41    1
    28    39    42    1
    29    36    37   ar
    30    37    38   ar
    31    31    32   ar
    32     4     5    1
    33     5     6    1
    34    13    14    1
    35    14    15   ar
    36    15    16   ar
    37    16    17   ar
    38    17    18   ar
    39    18    19   ar
    40    26    22   ar
    41     6     1    1
    42    19    14   ar
    43    32    28   ar
    44    38    33   ar
    45     7    11    1
    46    10    12    1
@<TRIPOS>MOLECULE
*****
 42 46 0 0 0
SMALL
GASTEIGER

@<TRIPOS>ATOM
      1 C          59.5652   92.4977    4.1687 C.3     1  UNL1        0.0758
      2 C          58.1766   92.1702    4.6318 C.3     1  UNL1        0.0370
      3 C          57.9311   90.9408    5.4553 C.3     1  UNL1        0.0741
      4 N          59.0742   90.0388    5.8155 N.3     1  UNL1       -0.2688
      5 C          60.4627   90.3662    5.3523 C.3     1  UNL1        0.0741
      6 C          60.7082   91.5957    4.5289 C.3     1  UNL1        0.0370
      7 N          60.0824   94.8640    1.0249 N.am    1  UNL1       -0.2849
      8 C          59.8369   93.6345    1.8483 C.2     1  UNL1        0.3010
      9 O          59.6175   92.3123    1.1748 O.2     1  UNL1       -0.2528
     10 N          59.8107   93.7272    3.3452 N.am    1  UNL1       -0.2905
     11 H          60.2264   95.7319    1.4669 H       1  UNL1        0.1513
     12 H          59.9547   94.5951    3.7872 H       1  UNL1        0.1509
     13 C          60.1086   94.7713   -0.4720 C.3     1  UNL1        0.1181
     14 C          61.3390   94.2741   -1.1712 C.ar    1  UNL1       -0.0026
     15 C          62.6511   94.2371   -0.4451 C.ar    1  UNL1       -0.0026
     16 C          63.8814   93.7399   -1.1443 C.ar    1  UNL1       -0.0003
     17 C          63.7999   93.2797   -2.5696 C.ar    1  UNL1       -0.0000
     18 C          62.4879   93.3167   -3.2957 C.ar    1  UNL1       -0.0003
     19 C          61.2574   93.8139   -2.5965 C.ar    1  UNL1       -0.0026
     20 C          58.9044   95.1758   -1.2697 C.3     1  UNL1        0.1312
     21 C          55.7291   95.9264   -1.3299 C.3     1  UNL1        0.0718
     22 C          56.3140   94.5545   -1.4904 C.ar    1  UNL1        0.1209
     23 N          55.5420   93.2868   -1.7067 N.ar    1  UNL1       -0.2293
     24 C          56.5244   92.1582   -1.8128 C.ar    1  UNL1        0.1188
     25 C          57.9036   92.7285   -1.6619 C.ar    1  UNL1        0.0978
     26 N          57.7735   94.2095   -1.4627 N.ar    1  UNL1       -0.3116
     27 C          58.8286   88.8092    6.6390 C.3     1  UNL1        0.1007
     28 C          59.7779   88.4427    7.7410 C.ar    1  UNL1        0.0129
     29 C          60.1673   87.0510    8.1427 C.ar    1  UNL1        0.0176
     30 C          61.1345   87.1517    9.2848 C.ar    1  UNL1        0.0799
     31 N          61.3428   88.6057    9.5890 N.ar    1  UNL1       -0.3038
     32 C          60.5044   89.4036    8.6349 C.ar    1  UNL1        0.0772
     33 C          62.2332   89.1638   10.6594 C.ar    1  UNL1        0.0640
     34 C          62.6392   88.3053   11.8204 C.ar    1  UNL1        0.0175
     35 C          63.5296   88.8634   12.8907 C.ar    1  UNL1        0.0053
     36 C          64.0141   90.2800   12.8000 C.ar    1  UNL1        0.0715
     37 C          63.6081   91.1387   11.6390 C.ar    1  UNL1        0.0053
     38 C          62.7177   90.5806   10.5687 C.ar    1  UNL1        0.0175
     39 C          64.9045   90.8381   13.8704 C.3     1  UNL1        0.4186
     40 F          65.7949   91.3962   14.9408 F       1  UNL1       -0.1659
     41 F          64.8417   92.1878   13.2189 F       1  UNL1       -0.1659
     42 F          64.9673   89.4884   14.5220 F       1  UNL1       -0.1659
@<TRIPOS>BOND
     1    21    22    1
     2    22    23   ar
     3    23    24   ar
     4    24    25   ar
     5    25    26   ar
     6    26    20    1
     7    20    13    1
     8    13     7    1
     9     7     8   am
    10     8     9    2
    11     8    10   am
    12    10     1    1
    13     1     2    1
    14     2     3    1
    15     3     4    1
    16     4    27    1
    17    27    28    1
    18    28    29   ar
    19    29    30   ar
    20    30    31   ar
    21    31    33    1
    22    33    34   ar
    23    34    35   ar
    24    35    36   ar
    25    36    39    1
    26    39    40    1
    27    39    41    1
    28    39    42    1
    29    36    37   ar
    30    37    38   ar
    31    31    32   ar
    32     4     5    1
    33     5     6    1
    34    13    14    1
    35    14    15   ar
    36    15    16   ar
    37    16    17   ar
    38    17    18   ar
    39    18    19   ar
    40    26    22   ar
    41     6     1    1
    42    19    14   ar
    43    32    28   ar
    44    38    33   ar
    45     7    11    1
    46    10    12    1
@<TRIPOS>MOLECULE
*****
 42 46 0 0 0
SMALL
GASTEIGER

@<TRIPOS>ATOM
      1 C          61.9162   89.5361   10.8932 C.3     1  UNL1        0.0758
      2 C          62.1314   88.3593    9.9884 C.3     1  UNL1        0.0370
      3 C          61.2086   88.1260    8.8291 C.3     1  UNL1        0.0741
      4 N          60.0706   89.0695    8.5747 N.3     1  UNL1       -0.2688
      5 C          59.8553   90.2463    9.4795 C.3     1  UNL1        0.0741
      6 C          60.7781   90.4796   10.6388 C.3     1  UNL1        0.0370
      7 N          64.7449   91.1349   13.1719 N.am    1  UNL1       -0.2849
      8 C          63.8221   90.9016   12.0126 C.2     1  UNL1        0.3010
      9 O          63.8824   91.8005   10.8132 O.2     1  UNL1       -0.2528
     10 N          62.8390   89.7694   12.0526 N.am    1  UNL1       -0.2905
     11 H          64.7053   90.5450   13.9591 H       1  UNL1        0.1513
     12 H          62.7994   89.1794   12.8397 H       1  UNL1        0.1509
     13 C          65.7280   92.2671   13.1319 C.3     1  UNL1        0.1181
     14 C          66.8217   92.3472   14.1553 C.ar    1  UNL1       -0.0026
     15 C          68.2348   92.0240   13.7698 C.ar    1  UNL1       -0.0026
     16 C          69.3285   92.1041   14.7932 C.ar    1  UNL1       -0.0003
     17 C          69.0090   92.5074   16.2022 C.ar    1  UNL1       -0.0000
     18 C          67.5960   92.8306   16.5878 C.ar    1  UNL1       -0.0003
     19 C          66.5022   92.7505   15.5643 C.ar    1  UNL1       -0.0026
     20 C          65.6175   93.3192   12.0685 C.3     1  UNL1        0.1312
     21 C          66.6374   96.0652   10.6302 C.3     1  UNL1        0.0718
     22 C          67.1338   94.6802   10.3383 C.ar    1  UNL1        0.1209
     23 N          68.1861   94.3142    9.3340 N.ar    1  UNL1       -0.2293
     24 C          68.3677   92.8257    9.3745 C.ar    1  UNL1        0.1188
     25 C          67.4276   92.2718   10.4038 C.ar    1  UNL1        0.0978
     26 N          66.6650   93.4179   10.9994 N.ar    1  UNL1       -0.3116
     27 C          59.1477   88.8361    7.4153 C.3     1  UNL1        0.1007
     28 C          59.0590   89.8482    6.3118 C.ar    1  UNL1        0.0129
     29 C          57.8049   90.5060    5.8175 C.ar    1  UNL1        0.0176
     30 C          58.1796   91.4445    4.7090 C.ar    1  UNL1        0.0799
     31 N          59.6655   91.3668    4.5183 N.ar    1  UNL1       -0.3038
     32 C          60.2089   90.3802    5.5088 C.ar    1  UNL1        0.0772
     33 C          60.4670   92.1399    3.5134 C.ar    1  UNL1        0.0640
     34 C          61.9295   91.8547    3.3409 C.ar    1  UNL1        0.0175
     35 C          62.7310   92.6278    2.3361 C.ar    1  UNL1        0.0053
     36 C          62.0701   93.6861    1.5036 C.ar    1  UNL1        0.0715
     37 C          60.6077   93.9714    1.6760 C.ar    1  UNL1        0.0053
     38 C          59.8061   93.1983    2.6809 C.ar    1  UNL1        0.0175
     39 C          62.8717   94.4592    0.4987 C.3     1  UNL1        0.4186
     40 F          63.6733   95.2322   -0.5062 F       1  UNL1       -0.1659
     41 F          63.0645   95.5599    1.4993 F       1  UNL1       -0.1659
     42 F          62.6789   93.3584   -0.5019 F       1  UNL1       -0.1659
@<TRIPOS>BOND
     1    21    22    1
     2    22    23   ar
     3    23    24   ar
     4    24    25   ar
     5    25    26   ar
     6    26    20    1
     7    20    13    1
     8    13     7    1
     9     7     8   am
    10     8     9    2
    11     8    10   am
    12    10     1    1
    13     1     2    1
    14     2     3    1
    15     3     4    1
    16     4    27    1
    17    27    28    1
    18    28    29   ar
    19    29    30   ar
    20    30    31   ar
    21    31    33    1
    22    33    34   ar
    23    34    35   ar
    24    35    36   ar
    25    36    39    1
    26    39    40    1
    27    39    41    1
    28    39    42    1
    29    36    37   ar
    30    37    38   ar
    31    31    32   ar
    32     4     5    1
    33     5     6    1
    34    13    14    1
    35    14    15   ar
    36    15    16   ar
    37    16    17   ar
    38    17    18   ar
    39    18    19   ar
    40    26    22   ar
    41     6     1    1
    42    19    14   ar
    43    32    28   ar
    44    38    33   ar
    45     7    11    1
    46    10    12    1
@<TRIPOS>MOLECULE
*****
 42 46 0 0 0
SMALL
GASTEIGER

@<TRIPOS>ATOM
      1 C          59.5545   92.4013    4.0499 C.3     1  UNL1        0.0758
      2 C          60.6751   91.5558    4.5784 C.3     1  UNL1        0.0370
      3 C          60.3803   90.4140    5.5054 C.3     1  UNL1        0.0741
      4 N          58.9649   90.1177    5.9039 N.3     1  UNL1       -0.2688
      5 C          57.8443   90.9632    5.3755 C.3     1  UNL1        0.0741
      6 C          58.1391   92.1049    4.4485 C.3     1  UNL1        0.0370
      7 N          60.5500   94.4139    0.7775 N.am    1  UNL1       -0.2849
      8 C          60.2553   93.2721    1.7046 C.2     1  UNL1        0.3010
      9 O          60.3667   91.8592    1.2133 O.2     1  UNL1       -0.2528
     10 N          59.8492   93.5431    3.1228 N.am    1  UNL1       -0.2905
     11 H          60.4769   95.3412    1.0999 H       1  UNL1        0.1513
     12 H          59.7761   94.4704    3.4453 H       1  UNL1        0.1509
     13 C          60.9561   94.1429   -0.6408 C.3     1  UNL1        0.1181
     14 C          59.9620   94.3131   -1.7511 C.ar    1  UNL1       -0.0026
     15 C          60.3916   94.1315   -3.1768 C.ar    1  UNL1       -0.0026
     16 C          59.3975   94.3017   -4.2871 C.ar    1  UNL1       -0.0003
     17 C          57.9739   94.6536   -3.9718 C.ar    1  UNL1       -0.0000
     18 C          57.5443   94.8352   -2.5462 C.ar    1  UNL1       -0.0003
     19 C          58.5384   94.6650   -1.4358 C.ar    1  UNL1       -0.0026
     20 C          62.3563   93.7016   -0.9488 C.3     1  UNL1        0.1312
     21 C          64.0724   93.9834   -3.7101 C.3     1  UNL1        0.0718
     22 C          64.2093   94.8514   -2.4945 C.ar    1  UNL1        0.1209
     23 N          65.1591   96.0013   -2.3346 N.ar    1  UNL1       -0.2293
     24 C          64.9573   96.5824   -0.9665 C.ar    1  UNL1        0.1188
     25 C          63.8828   95.7917   -0.2809 C.ar    1  UNL1        0.0978
     26 N          63.4205   94.7218   -1.2252 N.ar    1  UNL1       -0.3116
     27 C          58.6702   88.9759    6.8310 C.3     1  UNL1        0.1007
     28 C          59.6670   88.5866    7.8820 C.ar    1  UNL1        0.0129
     29 C          60.3546   89.5200    8.8338 C.ar    1  UNL1        0.0176
     30 C          61.2639   88.7059    9.7059 C.ar    1  UNL1        0.0799
     31 N          61.1383   87.2693    9.2930 N.ar    1  UNL1       -0.3038
     32 C          60.1514   87.1956    8.1659 C.ar    1  UNL1        0.0772
     33 C          61.8709   86.1100    9.9007 C.ar    1  UNL1        0.0640
     34 C          61.7141   85.8060   11.3611 C.ar    1  UNL1        0.0175
     35 C          62.4467   84.6467   11.9688 C.ar    1  UNL1        0.0053
     36 C          63.3362   83.7915   11.1160 C.ar    1  UNL1        0.0715
     37 C          63.4931   84.0954    9.6556 C.ar    1  UNL1        0.0053
     38 C          62.7604   85.2547    9.0479 C.ar    1  UNL1        0.0175
     39 C          64.0688   82.6322   11.7237 C.3     1  UNL1        0.4186
     40 F          64.8015   81.4729   12.3314 F       1  UNL1       -0.1659
     41 F          62.7654   81.9222   11.9407 F       1  UNL1       -0.1659
     42 F          65.3723   83.3421   11.5067 F       1  UNL1       -0.1659
@<TRIPOS>BOND
     1    21    22    1
     2    22    23   ar
     3    23    24   ar
     4    24    25   ar
     5    25    26   ar
     6    26    20    1
     7    20    13    1
     8    13     7    1
     9     7     8   am
    10     8     9    2
    11     8    10   am
    12    10     1    1
    13     1     2    1
    14     2     3    1
    15     3     4    1
    16     4    27    1
    17    27    28    1
    18    28    29   ar
    19    29    30   ar
    20    30    31   ar
    21    31    33    1
    22    33    34   ar
    23    34    35   ar
    24    35    36   ar
    25    36    39    1
    26    39    40    1
    27    39    41    1
    28    39    42    1
    29    36    37   ar
    30    37    38   ar
    31    31    32   ar
    32     4     5    1
    33     5     6    1
    34    13    14    1
    35    14    15   ar
    36    15    16   ar
    37    16    17   ar
    38    17    18   ar
    39    18    19   ar
    40    26    22   ar
    41     6     1    1
    42    19    14   ar
    43    32    28   ar
    44    38    33   ar
    45     7    11    1
    46    10    12    1
@<TRIPOS>MOLECULE
*****
 42 46 0 0 0
SMALL
GASTEIGER

@<TRIPOS>ATOM
      1 C          61.9525   88.3495    9.8986 C.3     1  UNL1        0.0758
      2 C          61.3227   87.2212    9.1368 C.3     1  UNL1        0.0370
      3 C          60.2350   87.5024    8.1429 C.3     1  UNL1        0.0741
      4 N          59.7772   88.9119    7.9108 N.3     1  UNL1       -0.2688
      5 C          60.4070   90.0401    8.6726 C.3     1  UNL1        0.0741
      6 C          61.4946   89.7589    9.6665 C.3     1  UNL1        0.0370
      7 N          64.0371   88.3455   13.2758 N.am    1  UNL1       -0.2849
      8 C          62.9494   88.6267   12.2818 C.2     1  UNL1        0.3010
      9 O          61.7709   89.4663   12.6771 O.2     1  UNL1       -0.2528
     10 N          63.0402   88.0683   10.8926 N.am    1  UNL1       -0.2905
     11 H          64.8106   87.7945   13.0163 H       1  UNL1        0.1513
     12 H          63.8137   87.5173   10.6332 H       1  UNL1        0.1509
     13 C          63.9462   88.9039   14.6649 C.3     1  UNL1        0.1181
     14 C          63.5748   88.0092   15.8101 C.ar    1  UNL1       -0.0026
     15 C          63.7368   86.5232   15.6840 C.ar    1  UNL1       -0.0026
     16 C          63.3654   85.6285   16.8291 C.ar    1  UNL1       -0.0003
     17 C          62.8319   86.2195   18.1004 C.ar    1  UNL1       -0.0000
     18 C          62.6700   87.7054   18.2265 C.ar    1  UNL1       -0.0003
     19 C          63.0414   88.6003   17.0813 C.ar    1  UNL1       -0.0026
     20 C          64.2268   90.3571   14.9090 C.3     1  UNL1        0.1312
     21 C          67.3136   91.4073   15.0458 C.3     1  UNL1        0.0718
     22 C          66.3470   91.6543   13.9256 C.ar    1  UNL1        0.1209
     23 N          66.6297   92.4274   12.6716 N.ar    1  UNL1       -0.2293
     24 C          65.3854   92.4224   11.8337 C.ar    1  UNL1        0.1188
     25 C          64.3339   91.6463   12.5699 C.ar    1  UNL1        0.0978
     26 N          64.9282   91.1716   13.8627 N.ar    1  UNL1       -0.3116
     27 C          58.6895   89.1930    6.9168 C.3     1  UNL1        0.1007
     28 C          58.8874   90.2449    5.8660 C.ar    1  UNL1        0.0129
     29 C          57.8307   91.1639    5.3285 C.ar    1  UNL1        0.0176
     30 C          58.4669   92.0495    4.2984 C.ar    1  UNL1        0.0799
     31 N          59.9168   91.6779    4.1994 N.ar    1  UNL1       -0.3038
     32 C          60.1766   90.5626    5.1682 C.ar    1  UNL1        0.0772
     33 C          60.9291   92.3105    3.2910 C.ar    1  UNL1        0.0640
     34 C          62.3378   91.7962    3.2642 C.ar    1  UNL1        0.0175
     35 C          63.3501   92.4288    2.3559 C.ar    1  UNL1        0.0053
     36 C          62.9536   93.5757    1.4743 C.ar    1  UNL1        0.0715
     37 C          61.5448   94.0900    1.5010 C.ar    1  UNL1        0.0053
     38 C          60.5325   93.4574    2.4094 C.ar    1  UNL1        0.0175
     39 C          63.9658   94.2082    0.5659 C.3     1  UNL1        0.4186
     40 F          64.9782   94.8408   -0.3424 F       1  UNL1       -0.1659
     41 F          62.8913   95.0653   -0.0346 F       1  UNL1       -0.1659
     42 F          65.0405   93.3511    1.1665 F       1  UNL1       -0.1659
@<TRIPOS>BOND
     1    21    22    1
     2    22    23   ar
     3    23    24   ar
     4    24    25   ar
     5    25    26   ar
     6    26    20    1
     7    20    13    1
     8    13     7    1
     9     7     8   am
    10     8     9    2
    11     8    10   am
    12    10     1    1
    13     1     2    1
    14     2     3    1
    15     3     4    1
    16     4    27    1
    17    27    28    1
    18    28    29   ar
    19    29    30   ar
    20    30    31   ar
    21    31    33    1
    22    33    34   ar
    23    34    35   ar
    24    35    36   ar
    25    36    39    1
    26    39    40    1
    27    39    41    1
    28    39    42    1
    29    36    37   ar
    30    37    38   ar
    31    31    32   ar
    32     4     5    1
    33     5     6    1
    34    13    14    1
    35    14    15   ar
    36    15    16   ar
    37    16    17   ar
    38    17    18   ar
    39    18    19   ar
    40    26    22   ar
    41     6     1    1
    42    19    14   ar
    43    32    28   ar
    44    38    33   ar
    45     7    11    1
    46    10    12    1
@<TRIPOS>MOLECULE
*****
 42 46 0 0 0
SMALL
GASTEIGER

@<TRIPOS>ATOM
      1 C          59.4013   92.3626    4.4064 C.3     1  UNL1        0.0758
      2 C          58.0508   91.9489    4.9111 C.3     1  UNL1        0.0370
      3 C          57.9053   90.6968    5.7241 C.3     1  UNL1        0.0741
      4 N          59.1103   89.8584    6.0324 N.3     1  UNL1       -0.2688
      5 C          60.4608   90.2721    5.5276 C.3     1  UNL1        0.0741
      6 C          60.6063   91.5242    4.7146 C.3     1  UNL1        0.0370
      7 N          59.9800   94.7778    1.3108 N.am    1  UNL1       -0.2849
      8 C          59.8344   93.5257    2.1238 C.2     1  UNL1        0.3010
      9 O          59.9765   92.1844    1.4674 O.2     1  UNL1       -0.2528
     10 N          59.5469   93.6148    3.5933 N.am    1  UNL1       -0.2905
     11 H          59.8868   95.6581    1.7416 H       1  UNL1        0.1513
     12 H          59.4537   94.4951    4.0241 H       1  UNL1        0.1509
     13 C          60.2676   94.6887   -0.1587 C.3     1  UNL1        0.1181
     14 C          59.2363   94.1271   -1.0919 C.ar    1  UNL1       -0.0026
     15 C          57.7871   94.1417   -0.7049 C.ar    1  UNL1       -0.0026
     16 C          56.7559   93.5801   -1.6381 C.ar    1  UNL1       -0.0003
     17 C          57.1737   93.0040   -2.9585 C.ar    1  UNL1       -0.0000
     18 C          58.6228   92.9894   -3.3457 C.ar    1  UNL1       -0.0003
     19 C          59.6541   93.5510   -2.4124 C.ar    1  UNL1       -0.0026
     20 C          61.5864   95.1612   -0.6948 C.3     1  UNL1        0.1312
     21 C          63.8647   93.4802   -2.3175 C.3     1  UNL1        0.0718
     22 C          63.9118   93.8542   -0.8657 C.ar    1  UNL1        0.1209
     23 N          65.0145   93.5212    0.0952 N.ar    1  UNL1       -0.2293
     24 C          64.6487   94.0881    1.4349 C.ar    1  UNL1        0.1188
     25 C          63.3200   94.7714    1.3020 C.ar    1  UNL1        0.0978
     26 N          62.8646   94.6269   -0.1198 N.ar    1  UNL1       -0.3116
     27 C          58.9647   88.6062    6.8454 C.3     1  UNL1        0.1007
     28 C          59.7547   88.4365    8.1092 C.ar    1  UNL1        0.0129
     29 C          59.7270   87.2391    9.0121 C.ar    1  UNL1        0.0176
     30 C          60.6663   87.4969   10.1529 C.ar    1  UNL1        0.0799
     31 N          61.2745   88.8538    9.9550 N.ar    1  UNL1       -0.3038
     32 C          60.7111   89.4344    8.6919 C.ar    1  UNL1        0.0772
     33 C          62.2710   89.5139   10.8610 C.ar    1  UNL1        0.0640
     34 C          62.8423   90.8527   10.4989 C.ar    1  UNL1        0.0175
     35 C          63.8388   91.5129   11.4050 C.ar    1  UNL1        0.0053
     36 C          64.2641   90.8343   12.6732 C.ar    1  UNL1        0.0715
     37 C          63.6929   89.4955   13.0354 C.ar    1  UNL1        0.0053
     38 C          62.6964   88.8353   12.1293 C.ar    1  UNL1        0.0175
     39 C          65.2607   91.4945   13.5793 C.3     1  UNL1        0.4186
     40 F          66.2573   92.1546   14.4854 F       1  UNL1       -0.1659
     41 F          65.0819   92.7849   12.8357 F       1  UNL1       -0.1659
     42 F          65.4396   90.2040   14.3228 F       1  UNL1       -0.1659
@<TRIPOS>BOND
     1    21    22    1
     2    22    23   ar
     3    23    24   ar
     4    24    25   ar
     5    25    26   ar
     6    26    20    1
     7    20    13    1
     8    13     7    1
     9     7     8   am
    10     8     9    2
    11     8    10   am
    12    10     1    1
    13     1     2    1
    14     2     3    1
    15     3     4    1
    16     4    27    1
    17    27    28    1
    18    28    29   ar
    19    29    30   ar
    20    30    31   ar
    21    31    33    1
    22    33    34   ar
    23    34    35   ar
    24    35    36   ar
    25    36    39    1
    26    39    40    1
    27    39    41    1
    28    39    42    1
    29    36    37   ar
    30    37    38   ar
    31    31    32   ar
    32     4     5    1
    33     5     6    1
    34    13    14    1
    35    14    15   ar
    36    15    16   ar
    37    16    17   ar
    38    17    18   ar
    39    18    19   ar
    40    26    22   ar
    41     6     1    1
    42    19    14   ar
    43    32    28   ar
    44    38    33   ar
    45     7    11    1
    46    10    12    1
@<TRIPOS>MOLECULE
*****
 42 46 0 0 0
SMALL
GASTEIGER

@<TRIPOS>ATOM
      1 C          61.6451   88.0852   10.1063 C.3     1  UNL1        0.0758
      2 C          60.9893   86.9641    9.3560 C.3     1  UNL1        0.0370
      3 C          60.0093   87.2665    8.2614 C.3     1  UNL1        0.0741
      4 N          59.6852   88.6900    7.9170 N.3     1  UNL1       -0.2688
      5 C          60.3410   89.8111    8.6673 C.3     1  UNL1        0.0741
      6 C          61.3209   89.5087    9.7619 C.3     1  UNL1        0.0370
      7 N          63.8766   88.5001   13.3619 N.am    1  UNL1       -0.2849
      8 C          62.8966   88.8024   12.2672 C.2     1  UNL1        0.3010
      9 O          62.1881   90.1243   12.2388 O.2     1  UNL1       -0.2528
     10 N          62.6250   87.7829   11.2010 N.am    1  UNL1       -0.2905
     11 H          64.3415   87.6325   13.3805 H       1  UNL1        0.1513
     12 H          63.0900   86.9153   11.2196 H       1  UNL1        0.1509
     13 C          64.1481   89.5196   14.4281 C.3     1  UNL1        0.1181
     14 C          64.8700   90.7890   14.0855 C.ar    1  UNL1       -0.0026
     15 C          65.6311   91.5285   15.1456 C.ar    1  UNL1       -0.0026
     16 C          66.3530   92.7979   14.8030 C.ar    1  UNL1       -0.0003
     17 C          66.3138   93.3279   13.4003 C.ar    1  UNL1       -0.0000
     18 C          65.5527   92.5884   12.3402 C.ar    1  UNL1       -0.0003
     19 C          64.8308   91.3189   12.6828 C.ar    1  UNL1       -0.0026
     20 C          63.6977   89.2697   15.8369 C.3     1  UNL1        0.1312
     21 C          65.2075   86.5243   14.9241 C.3     1  UNL1        0.0718
     22 C          64.0355   86.6181   15.8555 C.ar    1  UNL1        0.1209
     23 N          63.3517   85.4665   16.5309 N.ar    1  UNL1       -0.2293
     24 C          62.2351   86.0167   17.3679 C.ar    1  UNL1        0.1188
     25 C          62.2288   87.5083   17.2097 C.ar    1  UNL1        0.0978
     26 N          63.3415   87.8800   16.2750 N.ar    1  UNL1       -0.3116
     27 C          58.7052   88.9923    6.8223 C.3     1  UNL1        0.1007
     28 C          58.9769   90.1106    5.8602 C.ar    1  UNL1        0.0129
     29 C          58.0069   91.1809    5.4559 C.ar    1  UNL1        0.0176
     30 C          58.6967   92.0867    4.4793 C.ar    1  UNL1        0.0799
     31 N          60.0931   91.5762    4.2801 N.ar    1  UNL1       -0.3038
     32 C          60.2662   90.3549    5.1336 C.ar    1  UNL1        0.0772
     33 C          61.1336   92.1808    3.3848 C.ar    1  UNL1        0.0640
     34 C          62.5214   91.6125    3.3572 C.ar    1  UNL1        0.0175
     35 C          63.5619   92.2171    2.4619 C.ar    1  UNL1        0.0053
     36 C          63.2146   93.3901    1.5940 C.ar    1  UNL1        0.0715
     37 C          61.8267   93.9585    1.6214 C.ar    1  UNL1        0.0053
     38 C          60.7862   93.3539    2.5168 C.ar    1  UNL1        0.0175
     39 C          64.2551   93.9947    0.6986 C.3     1  UNL1        0.4186
     40 F          65.2955   94.5995   -0.1969 F       1  UNL1       -0.1659
     41 F          65.0887   92.7547    0.8299 F       1  UNL1       -0.1659
     42 F          63.4214   95.2349    0.5672 F       1  UNL1       -0.1659
@<TRIPOS>BOND
     1    21    22    1
     2    22    23   ar
     3    23    24   ar
     4    24    25   ar
     5    25    26   ar
     6    26    20    1
     7    20    13    1
     8    13     7    1
     9     7     8   am
    10     8     9    2
    11     8    10   am
    12    10     1    1
    13     1     2    1
    14     2     3    1
    15     3     4    1
    16     4    27    1
    17    27    28    1
    18    28    29   ar
    19    29    30   ar
    20    30    31   ar
    21    31    33    1
    22    33    34   ar
    23    34    35   ar
    24    35    36   ar
    25    36    39    1
    26    39    40    1
    27    39    41    1
    28    39    42    1
    29    36    37   ar
    30    37    38   ar
    31    31    32   ar
    32     4     5    1
    33     5     6    1
    34    13    14    1
    35    14    15   ar
    36    15    16   ar
    37    16    17   ar
    38    17    18   ar
    39    18    19   ar
    40    26    22   ar
    41     6     1    1
    42    19    14   ar
    43    32    28   ar
    44    38    33   ar
    45     7    11    1
    46    10    12    1
