@<TRIPOS>MOLECULE
*****
 34 38 0 0 0
SMALL
GASTEIGER

@<TRIPOS>ATOM
      1 N          64.1710   85.6749   14.3461 N.3     1  UNL1       -0.2726
      2 C          64.7640   84.3188   14.5901 C.3     1  UNL1        0.0721
      3 C          64.4088   83.4415   13.4265 C.3     1  UNL1        0.0190
      4 C          63.5964   84.2553   12.4633 C.3     1  UNL1        0.0202
      5 C          63.4026   83.1599   11.4570 C.3     1  UNL1        0.0062
      6 C          62.8096   84.5160   11.2130 C.3     1  UNL1        0.0259
      7 C          63.4494   85.6356   13.0317 C.3     1  UNL1        0.0724
      8 C          62.0131   85.4494   10.3504 C.ar    1  UNL1        0.0050
      9 C          61.0788   86.4395   10.9803 C.ar    1  UNL1       -0.0021
     10 C          60.2823   87.3730   10.1176 C.ar    1  UNL1        0.0037
     11 C          60.4200   87.3163    8.6250 C.ar    1  UNL1        0.0736
     12 C          61.3543   86.3261    7.9951 C.ar    1  UNL1        0.0332
     13 C          62.1509   85.3927    8.8578 C.ar    1  UNL1        0.1361
     14 F          63.0851   84.4026    8.2279 F       1  UNL1       -0.2045
     15 C          59.6235   88.2497    7.7624 C.3     1  UNL1        0.4186
     16 F          58.8270   89.1832    6.8997 F       1  UNL1       -0.1659
     17 F          58.9303   87.0773    7.1340 F       1  UNL1       -0.1659
     18 F          60.3168   89.4221    8.3908 F       1  UNL1       -0.1659
     19 C          64.2805   86.8618   15.2567 C.3     1  UNL1        0.0730
     20 C          64.3198   88.2468   14.6821 C.3     1  UNL1        0.0294
     21 C          63.7075   89.3896   15.4365 C.3     1  UNL1        0.0666
     22 S          64.1240   90.7981   15.1323 S.3     1  UNL1       -0.0756
     23 C          66.4788   92.7875   14.0614 C.3     1  UNL1        0.1340
     24 N          65.4198   92.1410   13.2185 N.ar    1  UNL1       -0.2884
     25 C          64.3374   91.2266   13.7107 C.ar    1  UNL1        0.1932
     26 N          63.5058   90.8158   12.5318 N.ar    1  UNL1       -0.1221
     27 N          64.0742   91.4764   11.3110 N.ar    1  UNL1       -0.1282
     28 C          65.2572   92.2954   11.7353 C.ar    1  UNL1        0.1683
     29 C          66.1250   93.1234   10.8346 C.ar    1  UNL1        0.0551
     30 C          67.3395   92.5161   10.1974 C.ar    1  UNL1        0.0062
     31 C          68.2074   93.3441    9.2967 C.ar    1  UNL1        0.0208
     32 C          67.8606   94.7795    9.0333 C.ar    1  UNL1        0.0989
     33 N          66.6461   95.3869    9.6705 N.ar    1  UNL1       -0.2422
     34 C          65.7783   94.5588   10.5712 C.ar    1  UNL1        0.1019
@<TRIPOS>BOND
     1    23    24    1
     2    24    25   ar
     3    25    22    1
     4    22    21    1
     5    21    20    1
     6    20    19    1
     7    19     1    1
     8     1     2    1
     9     2     3    1
    10     4     3    1
    11     4     5    1
    12     5     6    1
    13     6     8    1
    14     8     9   ar
    15     9    10   ar
    16    10    11   ar
    17    11    15    1
    18    15    16    1
    19    15    17    1
    20    15    18    1
    21    11    12   ar
    22    12    13   ar
    23    13    14    1
    24     4     7    1
    25    25    26   ar
    26    26    27   ar
    27    27    28   ar
    28    28    29    1
    29    29    30   ar
    30    30    31   ar
    31    31    32   ar
    32    32    33   ar
    33    33    34   ar
    34    28    24   ar
    35    34    29   ar
    36     7     1    1
    37     6     4    1
    38    13     8   ar
@<TRIPOS>MOLECULE
*****
 34 38 0 0 0
SMALL
GASTEIGER

@<TRIPOS>ATOM
      1 N          64.3624   86.0375   15.1786 N.3     1  UNL1       -0.2726
      2 C          63.5481   85.8363   16.4222 C.3     1  UNL1        0.0721
      3 C          63.0895   87.1826   16.8987 C.3     1  UNL1        0.0190
      4 C          63.6203   88.2158   15.9496 C.3     1  UNL1        0.0202
      5 C          63.0247   89.3978   16.6554 C.3     1  UNL1        0.0062
      6 C          63.8389   89.5990   15.4118 C.3     1  UNL1        0.0259
      7 C          64.4070   87.5081   14.8865 C.3     1  UNL1        0.0724
      8 C          64.4352   90.5136   14.3833 C.ar    1  UNL1        0.0050
      9 C          65.7350   91.2088   14.6613 C.ar    1  UNL1       -0.0021
     10 C          66.3313   92.1234   13.6328 C.ar    1  UNL1        0.0037
     11 C          65.6278   92.3429   12.3264 C.ar    1  UNL1        0.0736
     12 C          64.3280   91.6478   12.0484 C.ar    1  UNL1        0.0332
     13 C          63.7317   90.7331   13.0769 C.ar    1  UNL1        0.1361
     14 F          62.4320   90.0380   12.7989 F       1  UNL1       -0.2045
     15 C          66.2241   93.2576   11.2979 C.3     1  UNL1        0.4186
     16 F          66.8204   94.1722   10.2693 F       1  UNL1       -0.1659
     17 F          66.0138   94.4258   12.2149 F       1  UNL1       -0.1659
     18 F          66.4344   92.0893   10.3808 F       1  UNL1       -0.1659
     19 C          65.0170   84.9576   14.3691 C.3     1  UNL1        0.0730
     20 C          64.4441   83.5713   14.3652 C.3     1  UNL1        0.0294
     21 C          64.0564   82.9235   13.0690 C.3     1  UNL1        0.0666
     22 S          64.0602   83.7234   11.8002 S.3     1  UNL1       -0.0756
     23 C          63.1218   84.8692    8.8922 C.3     1  UNL1        0.1340
     24 N          62.5651   85.2799   10.2231 N.ar    1  UNL1       -0.2884
     25 C          62.9964   84.7533   11.5598 C.ar    1  UNL1        0.1932
     26 N          62.1772   85.4373   12.6138 N.ar    1  UNL1       -0.1221
     27 N          61.2396   86.3867   11.9286 N.ar    1  UNL1       -0.1282
     28 C          61.4793   86.2894   10.4511 C.ar    1  UNL1        0.1683
     29 C          60.7595   87.0655    9.3881 C.ar    1  UNL1        0.0551
     30 C          59.9786   86.3428    8.3309 C.ar    1  UNL1        0.0062
     31 C          59.2589   87.1188    7.2679 C.ar    1  UNL1        0.0208
     32 C          59.3202   88.6176    7.2624 C.ar    1  UNL1        0.0989
     33 N          60.1011   89.3403    8.3196 N.ar    1  UNL1       -0.2422
     34 C          60.8208   88.5642    9.3825 C.ar    1  UNL1        0.1019
@<TRIPOS>BOND
     1    23    24    1
     2    24    25   ar
     3    25    22    1
     4    22    21    1
     5    21    20    1
     6    20    19    1
     7    19     1    1
     8     1     2    1
     9     2     3    1
    10     4     3    1
    11     4     5    1
    12     5     6    1
    13     6     8    1
    14     8     9   ar
    15     9    10   ar
    16    10    11   ar
    17    11    15    1
    18    15    16    1
    19    15    17    1
    20    15    18    1
    21    11    12   ar
    22    12    13   ar
    23    13    14    1
    24     4     7    1
    25    25    26   ar
    26    26    27   ar
    27    27    28   ar
    28    28    29    1
    29    29    30   ar
    30    30    31   ar
    31    31    32   ar
    32    32    33   ar
    33    33    34   ar
    34    28    24   ar
    35    34    29   ar
    36     7     1    1
    37     6     4    1
    38    13     8   ar
@<TRIPOS>MOLECULE
*****
 34 38 0 0 0
SMALL
GASTEIGER

@<TRIPOS>ATOM
      1 N          62.8655   84.1905   14.6693 N.3     1  UNL1       -0.2726
      2 C          63.9666   83.1722   14.6993 C.3     1  UNL1        0.0721
      3 C          64.4246   82.9432   13.2895 C.3     1  UNL1        0.0190
      4 C          63.6067   83.8199   12.3881 C.3     1  UNL1        0.0202
      5 C          64.2646   83.3887   11.1108 C.3     1  UNL1        0.0062
      6 C          63.1635   84.4069   11.0808 C.3     1  UNL1        0.0259
      7 C          62.6431   84.5908   13.2409 C.3     1  UNL1        0.0724
      8 C          62.2720   85.3338   10.3087 C.ar    1  UNL1        0.0050
      9 C          61.3717   86.2877   11.0364 C.ar    1  UNL1       -0.0021
     10 C          60.4801   87.2145   10.2643 C.ar    1  UNL1        0.0037
     11 C          60.4889   87.1874    8.7646 C.ar    1  UNL1        0.0736
     12 C          61.3893   86.2335    8.0369 C.ar    1  UNL1        0.0332
     13 C          62.2808   85.3067    8.8090 C.ar    1  UNL1        0.1361
     14 F          63.1811   84.3528    8.0814 F       1  UNL1       -0.2045
     15 C          59.5974   88.1143    7.9925 C.3     1  UNL1        0.4186
     16 F          58.7058   89.0412    7.2204 F       1  UNL1       -0.1659
     17 F          59.2093   86.9849    7.0849 F       1  UNL1       -0.1659
     18 F          59.9855   89.2437    8.9001 F       1  UNL1       -0.1659
     19 C          62.1181   84.7162   15.8588 C.3     1  UNL1        0.0730
     20 C          62.8293   85.5501   16.8829 C.3     1  UNL1        0.0294
     21 C          63.4931   86.8324   16.4764 C.3     1  UNL1        0.0666
     22 S          62.8563   88.1472   16.8166 S.3     1  UNL1       -0.0756
     23 C          64.1593   88.4081   13.8361 C.3     1  UNL1        0.1340
     24 N          63.9565   89.5299   14.8109 N.ar    1  UNL1       -0.2884
     25 C          63.3576   89.4100   16.1809 C.ar    1  UNL1        0.1932
     26 N          63.3479   90.7746   16.8037 N.ar    1  UNL1       -0.1221
     27 N          63.9409   91.7379   15.8186 N.ar    1  UNL1       -0.1282
     28 C          64.3170   90.9687   14.5869 C.ar    1  UNL1        0.1683
     29 C          64.9436   91.5382   13.3488 C.ar    1  UNL1        0.0551
     30 C          64.1791   91.5491   12.0583 C.ar    1  UNL1        0.0062
     31 C          64.8058   92.1187   10.8201 C.ar    1  UNL1        0.0208
     32 C          66.1970   92.6772   10.8726 C.ar    1  UNL1        0.0989
     33 N          66.9615   92.6663   12.1631 N.ar    1  UNL1       -0.2422
     34 C          66.3347   92.0967   13.4012 C.ar    1  UNL1        0.1019
@<TRIPOS>BOND
     1    23    24    1
     2    24    25   ar
     3    25    22    1
     4    22    21    1
     5    21    20    1
     6    20    19    1
     7    19     1    1
     8     1     2    1
     9     2     3    1
    10     4     3    1
    11     4     5    1
    12     5     6    1
    13     6     8    1
    14     8     9   ar
    15     9    10   ar
    16    10    11   ar
    17    11    15    1
    18    15    16    1
    19    15    17    1
    20    15    18    1
    21    11    12   ar
    22    12    13   ar
    23    13    14    1
    24     4     7    1
    25    25    26   ar
    26    26    27   ar
    27    27    28   ar
    28    28    29    1
    29    29    30   ar
    30    30    31   ar
    31    31    32   ar
    32    32    33   ar
    33    33    34   ar
    34    28    24   ar
    35    34    29   ar
    36     7     1    1
    37     6     4    1
    38    13     8   ar
@<TRIPOS>MOLECULE
*****
 34 38 0 0 0
SMALL
GASTEIGER

@<TRIPOS>ATOM
      1 N          64.2463   86.4447   15.2293 N.3     1  UNL1       -0.2726
      2 C          63.4973   86.4185   16.5286 C.3     1  UNL1        0.0721
      3 C          63.1146   87.8277   16.8716 C.3     1  UNL1        0.0190
      4 C          63.6271   88.7249   15.7842 C.3     1  UNL1        0.0202
      5 C          63.1148   90.0024   16.3805 C.3     1  UNL1        0.0062
      6 C          63.8639   90.0287   15.0812 C.3     1  UNL1        0.0259
      7 C          64.3266   87.8702   14.7692 C.3     1  UNL1        0.0724
      8 C          64.4331   90.7965   13.9252 C.ar    1  UNL1        0.0050
      9 C          63.7135   90.8139   12.6092 C.ar    1  UNL1       -0.0021
     10 C          64.2827   91.5817   11.4532 C.ar    1  UNL1        0.0037
     11 C          65.5715   92.3323   11.6132 C.ar    1  UNL1        0.0736
     12 C          66.2911   92.3149   12.9292 C.ar    1  UNL1        0.0332
     13 C          65.7219   91.5471   14.0852 C.ar    1  UNL1        0.1361
     14 F          66.4415   91.5297   15.4012 F       1  UNL1       -0.2045
     15 C          66.1407   93.1001   10.4572 C.3     1  UNL1        0.4186
     16 F          66.7100   93.8680    9.3011 F       1  UNL1       -0.1659
     17 F          65.2122   94.2394   10.7568 F       1  UNL1       -0.1659
     18 F          67.0693   91.9608   10.1577 F       1  UNL1       -0.1659
     19 C          64.8153   85.2545   14.5154 C.3     1  UNL1        0.0730
     20 C          64.2409   83.8900   14.7566 C.3     1  UNL1        0.0294
     21 C          63.3921   83.2371   13.7063 C.3     1  UNL1        0.0666
     22 S          63.9669   82.9458   12.3518 S.3     1  UNL1       -0.0756
     23 C          62.0009   85.5496   12.4187 C.3     1  UNL1        0.1340
     24 N          62.6418   84.9599   11.1974 N.ar    1  UNL1       -0.2884
     25 C          63.5454   83.7630   11.1667 C.ar    1  UNL1        0.1932
     26 N          63.9537   83.5269    9.7427 N.ar    1  UNL1       -0.1221
     27 N          63.3023   84.5778    8.8934 N.ar    1  UNL1       -0.1282
     28 C          62.4915   85.4635    9.7924 C.ar    1  UNL1        0.1683
     29 C          61.6740   86.6452    9.3621 C.ar    1  UNL1        0.0551
     30 C          62.0113   88.0156    9.8702 C.ar    1  UNL1        0.0062
     31 C          61.1938   89.1974    9.4398 C.ar    1  UNL1        0.0208
     32 C          60.0390   89.0086    8.5012 C.ar    1  UNL1        0.0989
     33 N          59.7017   87.6382    7.9931 N.ar    1  UNL1       -0.2422
     34 C          60.5192   86.4565    8.4236 C.ar    1  UNL1        0.1019
@<TRIPOS>BOND
     1    23    24    1
     2    24    25   ar
     3    25    22    1
     4    22    21    1
     5    21    20    1
     6    20    19    1
     7    19     1    1
     8     1     2    1
     9     2     3    1
    10     4     3    1
    11     4     5    1
    12     5     6    1
    13     6     8    1
    14     8     9   ar
    15     9    10   ar
    16    10    11   ar
    17    11    15    1
    18    15    16    1
    19    15    17    1
    20    15    18    1
    21    11    12   ar
    22    12    13   ar
    23    13    14    1
    24     4     7    1
    25    25    26   ar
    26    26    27   ar
    27    27    28   ar
    28    28    29    1
    29    29    30   ar
    30    30    31   ar
    31    31    32   ar
    32    32    33   ar
    33    33    34   ar
    34    28    24   ar
    35    34    29   ar
    36     7     1    1
    37     6     4    1
    38    13     8   ar
@<TRIPOS>MOLECULE
*****
 34 38 0 0 0
SMALL
GASTEIGER

@<TRIPOS>ATOM
      1 N          62.5323   85.5323    9.5554 N.3     1  UNL1       -0.2726
      2 C          63.0968   84.3786    8.7807 C.3     1  UNL1        0.0721
      3 C          63.7759   83.4573    9.7503 C.3     1  UNL1        0.0190
      4 C          63.6309   84.0416   11.1242 C.3     1  UNL1        0.0202
      5 C          64.3727   82.9504   11.8377 C.3     1  UNL1        0.0062
      6 C          63.8081   84.1041   12.6124 C.3     1  UNL1        0.0259
      7 C          62.8623   85.3240   11.0038 C.3     1  UNL1        0.0724
      8 C          63.5844   84.8063   13.9189 C.ar    1  UNL1        0.0050
      9 C          64.3567   86.0506   14.2434 C.ar    1  UNL1       -0.0021
     10 C          64.1330   86.7528   15.5499 C.ar    1  UNL1        0.0037
     11 C          63.1370   86.2107   16.5318 C.ar    1  UNL1        0.0736
     12 C          62.3646   84.9665   16.2072 C.ar    1  UNL1        0.0332
     13 C          62.5884   84.2642   14.9008 C.ar    1  UNL1        0.1361
     14 F          61.8161   83.0200   14.5762 F       1  UNL1       -0.2045
     15 C          62.9133   86.9130   17.8382 C.3     1  UNL1        0.4186
     16 F          62.6896   87.6152   19.1447 F       1  UNL1       -0.1659
     17 F          62.4151   85.6329   18.4409 F       1  UNL1       -0.1659
     18 F          63.4114   88.1930   17.2355 F       1  UNL1       -0.1659
     19 C          61.7712   86.6909    8.9824 C.3     1  UNL1        0.0730
     20 C          61.4310   87.8670    9.8490 C.3     1  UNL1        0.0294
     21 C          62.4179   88.9837   10.0193 C.3     1  UNL1        0.0666
     22 S          62.1603   90.0654   11.0261 S.3     1  UNL1       -0.0756
     23 C          64.7178   92.0769   11.2762 C.3     1  UNL1        0.1340
     24 N          64.2324   91.1320   12.3352 N.ar    1  UNL1       -0.2884
     25 C          63.0568   90.2074   12.2202 C.ar    1  UNL1        0.1932
     26 N          62.9352   89.4497   13.5091 N.ar    1  UNL1       -0.1221
     27 N          64.0356   89.9061   14.4206 N.ar    1  UNL1       -0.1282
     28 C          64.8373   90.9458   13.6952 C.ar    1  UNL1        0.1683
     29 C          66.0339   91.6718   14.2348 C.ar    1  UNL1        0.0551
     30 C          65.9837   92.2881   15.6014 C.ar    1  UNL1        0.0062
     31 C          67.1803   93.0141   16.1411 C.ar    1  UNL1        0.0208
     32 C          68.4269   93.1237   15.3141 C.ar    1  UNL1        0.0989
     33 N          68.4771   92.5073   13.9475 N.ar    1  UNL1       -0.2422
     34 C          67.2805   91.7814   13.4079 C.ar    1  UNL1        0.1019
@<TRIPOS>BOND
     1    23    24    1
     2    24    25   ar
     3    25    22    1
     4    22    21    1
     5    21    20    1
     6    20    19    1
     7    19     1    1
     8     1     2    1
     9     2     3    1
    10     4     3    1
    11     4     5    1
    12     5     6    1
    13     6     8    1
    14     8     9   ar
    15     9    10   ar
    16    10    11   ar
    17    11    15    1
    18    15    16    1
    19    15    17    1
    20    15    18    1
    21    11    12   ar
    22    12    13   ar
    23    13    14    1
    24     4     7    1
    25    25    26   ar
    26    26    27   ar
    27    27    28   ar
    28    28    29    1
    29    29    30   ar
    30    30    31   ar
    31    31    32   ar
    32    32    33   ar
    33    33    34   ar
    34    28    24   ar
    35    34    29   ar
    36     7     1    1
    37     6     4    1
    38    13     8   ar
@<TRIPOS>MOLECULE
*****
 34 38 0 0 0
SMALL
GASTEIGER

@<TRIPOS>ATOM
      1 N          62.1472   86.4500    8.9007 N.3     1  UNL1       -0.2726
      2 C          60.7231   86.4672    8.4299 C.3     1  UNL1        0.0721
      3 C          60.0624   87.6888    8.9966 C.3     1  UNL1        0.0190
      4 C          61.0781   88.4265    9.8176 C.3     1  UNL1        0.0202
      5 C          60.1651   89.5427   10.2307 C.3     1  UNL1        0.0062
      6 C          61.5892   89.5254   10.7015 C.3     1  UNL1        0.0259
      7 C          62.3666   87.6609    9.7583 C.3     1  UNL1        0.0724
      8 C          62.7065   90.1499   11.4836 C.ar    1  UNL1        0.0050
      9 C          63.0168   89.6625   12.8678 C.ar    1  UNL1       -0.0021
     10 C          64.1341   90.2870   13.6499 C.ar    1  UNL1        0.0037
     11 C          64.9410   91.3989   13.0478 C.ar    1  UNL1        0.0736
     12 C          64.6307   91.8863   11.6635 C.ar    1  UNL1        0.0332
     13 C          63.5134   91.2618   10.8814 C.ar    1  UNL1        0.1361
     14 F          63.2030   91.7492    9.4973 F       1  UNL1       -0.2045
     15 C          66.0583   92.0233   13.8299 C.3     1  UNL1        0.4186
     16 F          67.1757   92.6478   14.6120 F       1  UNL1       -0.1659
     17 F          65.9018   93.2901   13.0419 F       1  UNL1       -0.1659
     18 F          66.2148   90.7566   14.6178 F       1  UNL1       -0.1659
     19 C          63.1720   85.4052    8.5716 C.3     1  UNL1        0.0730
     20 C          62.9801   83.9929    9.0390 C.3     1  UNL1        0.0294
     21 C          63.9793   83.3674    9.9666 C.3     1  UNL1        0.0666
     22 S          63.5176   82.4409   11.0521 S.3     1  UNL1       -0.0756
     23 C          62.6310   85.3246   12.2961 C.3     1  UNL1        0.1340
     24 N          63.2247   84.1793   13.0614 N.ar    1  UNL1       -0.2884
     25 C          63.6322   82.8538   12.4896 C.ar    1  UNL1        0.1932
     26 N          64.1744   82.0136   13.6076 N.ar    1  UNL1       -0.1221
     27 N          64.1020   82.8198   14.8705 N.ar    1  UNL1       -0.1282
     28 C          63.5151   84.1583   14.5329 C.ar    1  UNL1        0.1683
     29 C          63.2628   85.2790   15.4975 C.ar    1  UNL1        0.0551
     30 C          63.9794   86.5864   15.3322 C.ar    1  UNL1        0.0062
     31 C          63.7271   87.7071   16.2968 C.ar    1  UNL1        0.0208
     32 C          62.7582   87.5204   17.4266 C.ar    1  UNL1        0.0989
     33 N          62.0416   86.2130   17.5918 N.ar    1  UNL1       -0.2422
     34 C          62.2939   85.0923   16.6272 C.ar    1  UNL1        0.1019
@<TRIPOS>BOND
     1    23    24    1
     2    24    25   ar
     3    25    22    1
     4    22    21    1
     5    21    20    1
     6    20    19    1
     7    19     1    1
     8     1     2    1
     9     2     3    1
    10     4     3    1
    11     4     5    1
    12     5     6    1
    13     6     8    1
    14     8     9   ar
    15     9    10   ar
    16    10    11   ar
    17    11    15    1
    18    15    16    1
    19    15    17    1
    20    15    18    1
    21    11    12   ar
    22    12    13   ar
    23    13    14    1
    24     4     7    1
    25    25    26   ar
    26    26    27   ar
    27    27    28   ar
    28    28    29    1
    29    29    30   ar
    30    30    31   ar
    31    31    32   ar
    32    32    33   ar
    33    33    34   ar
    34    28    24   ar
    35    34    29   ar
    36     7     1    1
    37     6     4    1
    38    13     8   ar
@<TRIPOS>MOLECULE
*****
 34 38 0 0 0
SMALL
GASTEIGER

@<TRIPOS>ATOM
      1 N          60.1844   89.0381    9.1170 N.3     1  UNL1       -0.2726
      2 C          59.6512   88.8294    7.7306 C.3     1  UNL1        0.0721
      3 C          59.9920   87.4310    7.3086 C.3     1  UNL1        0.0190
      4 C          60.7359   86.7753    8.4341 C.3     1  UNL1        0.0202
      5 C          60.9297   85.4563    7.7467 C.3     1  UNL1        0.0062
      6 C          61.4629   85.6649    9.1331 C.3     1  UNL1        0.0259
      7 C          60.8548   87.7686    9.5518 C.3     1  UNL1        0.0724
      8 C          62.1905   85.1444   10.3370 C.ar    1  UNL1        0.0050
      9 C          61.8342   85.6478   11.7044 C.ar    1  UNL1       -0.0021
     10 C          62.5618   85.1272   12.9084 C.ar    1  UNL1        0.0037
     11 C          63.6456   84.1032   12.7450 C.ar    1  UNL1        0.0736
     12 C          64.0019   83.5998   11.3776 C.ar    1  UNL1        0.0332
     13 C          63.2743   84.1203   10.1736 C.ar    1  UNL1        0.1361
     14 F          63.6305   83.6170    8.8064 F       1  UNL1       -0.2045
     15 C          64.3732   83.5826   13.9490 C.3     1  UNL1        0.4186
     16 F          65.1008   83.0619   15.1530 F       1  UNL1       -0.1659
     17 F          64.9597   84.9432   14.1829 F       1  UNL1       -0.1659
     18 F          63.7868   82.2220   13.7150 F       1  UNL1       -0.1659
     19 C          60.0678   90.2955    9.9266 C.3     1  UNL1        0.0730
     20 C          59.7412   90.2186   11.3885 C.3     1  UNL1        0.0294
     21 C          60.8047   89.8385   12.3758 C.3     1  UNL1        0.0666
     22 S          62.2442   89.8139   11.9551 S.3     1  UNL1       -0.0756
     23 C          64.4280   92.2278   12.1864 C.3     1  UNL1        0.1340
     24 N          64.3324   91.0356   13.0916 N.ar    1  UNL1       -0.2884
     25 C          63.3287   89.9261   12.9853 C.ar    1  UNL1        0.1932
     26 N          63.5997   88.9483   14.0902 N.ar    1  UNL1       -0.1221
     27 N          64.7709   89.4537   14.8793 N.ar    1  UNL1       -0.1282
     28 C          65.2239   90.7437   14.2623 C.ar    1  UNL1        0.1683
     29 C          66.3673   91.5927   14.7331 C.ar    1  UNL1        0.0551
     30 C          67.6846   91.5404   14.0175 C.ar    1  UNL1        0.0062
     31 C          68.8281   92.3894   14.4884 C.ar    1  UNL1        0.0208
     32 C          68.6542   93.2907   15.6748 C.ar    1  UNL1        0.0989
     33 N          67.3369   93.3430   16.3903 N.ar    1  UNL1       -0.2422
     34 C          66.1935   92.4939   15.9194 C.ar    1  UNL1        0.1019
@<TRIPOS>BOND
     1    23    24    1
     2    24    25   ar
     3    25    22    1
     4    22    21    1
     5    21    20    1
     6    20    19    1
     7    19     1    1
     8     1     2    1
     9     2     3    1
    10     4     3    1
    11     4     5    1
    12     5     6    1
    13     6     8    1
    14     8     9   ar
    15     9    10   ar
    16    10    11   ar
    17    11    15    1
    18    15    16    1
    19    15    17    1
    20    15    18    1
    21    11    12   ar
    22    12    13   ar
    23    13    14    1
    24     4     7    1
    25    25    26   ar
    26    26    27   ar
    27    27    28   ar
    28    28    29    1
    29    29    30   ar
    30    30    31   ar
    31    31    32   ar
    32    32    33   ar
    33    33    34   ar
    34    28    24   ar
    35    34    29   ar
    36     7     1    1
    37     6     4    1
    38    13     8   ar
@<TRIPOS>MOLECULE
*****
 34 38 0 0 0
SMALL
GASTEIGER

@<TRIPOS>ATOM
      1 N          62.4025   85.7198    9.8249 N.3     1  UNL1       -0.2726
      2 C          62.9851   84.5956    9.0207 C.3     1  UNL1        0.0721
      3 C          63.7042   83.6760    9.9627 C.3     1  UNL1        0.0190
      4 C          63.5660   84.2319   11.3490 C.3     1  UNL1        0.0202
      5 C          64.3481   83.1487   12.0309 C.3     1  UNL1        0.0062
      6 C          63.7655   84.2729   12.8351 C.3     1  UNL1        0.0259
      7 C          62.7615   85.4950   11.2638 C.3     1  UNL1        0.0724
      8 C          63.5443   84.9457   14.1574 C.ar    1  UNL1        0.0050
      9 C          62.9137   84.1882   15.2881 C.ar    1  UNL1       -0.0021
     10 C          62.6925   84.8610   16.6104 C.ar    1  UNL1        0.0037
     11 C          63.1020   86.2912   16.8019 C.ar    1  UNL1        0.0736
     12 C          63.7326   87.0487   15.6712 C.ar    1  UNL1        0.0332
     13 C          63.9537   86.3760   14.3489 C.ar    1  UNL1        0.1361
     14 F          64.5843   87.1334   13.2182 F       1  UNL1       -0.2045
     15 C          62.8808   86.9640   18.1242 C.3     1  UNL1        0.4186
     16 F          62.6596   87.6368   19.4466 F       1  UNL1       -0.1659
     17 F          63.1431   88.2976   17.4896 F       1  UNL1       -0.1659
     18 F          62.6185   85.6305   18.7589 F       1  UNL1       -0.1659
     19 C          61.6015   86.8674    9.2849 C.3     1  UNL1        0.0730
     20 C          62.0100   88.2775    9.5924 C.3     1  UNL1        0.0294
     21 C          61.9030   88.8007   10.9942 C.3     1  UNL1        0.0666
     22 S          61.9047   90.2796   11.2449 S.3     1  UNL1       -0.0756
     23 C          63.3895   90.2786   14.1509 C.3     1  UNL1        0.1340
     24 N          63.8695   90.9814   12.9158 N.ar    1  UNL1       -0.2884
     25 C          63.1871   90.9819   11.5800 C.ar    1  UNL1        0.1932
     26 N          64.0120   91.8080   10.6382 N.ar    1  UNL1       -0.1221
     27 N          65.2044   92.3181   11.3919 N.ar    1  UNL1       -0.1282
     28 C          65.1164   91.8073   12.7995 C.ar    1  UNL1        0.1683
     29 C          66.1021   92.0752   13.8980 C.ar    1  UNL1        0.0551
     30 C          67.5723   91.9289   13.6386 C.ar    1  UNL1        0.0062
     31 C          68.5580   92.1969   14.7371 C.ar    1  UNL1        0.0208
     32 C          68.0734   92.6111   16.0949 C.ar    1  UNL1        0.0989
     33 N          66.6033   92.7574   16.3543 N.ar    1  UNL1       -0.2422
     34 C          65.6176   92.4894   15.2558 C.ar    1  UNL1        0.1019
@<TRIPOS>BOND
     1    23    24    1
     2    24    25   ar
     3    25    22    1
     4    22    21    1
     5    21    20    1
     6    20    19    1
     7    19     1    1
     8     1     2    1
     9     2     3    1
    10     4     3    1
    11     4     5    1
    12     5     6    1
    13     6     8    1
    14     8     9   ar
    15     9    10   ar
    16    10    11   ar
    17    11    15    1
    18    15    16    1
    19    15    17    1
    20    15    18    1
    21    11    12   ar
    22    12    13   ar
    23    13    14    1
    24     4     7    1
    25    25    26   ar
    26    26    27   ar
    27    27    28   ar
    28    28    29    1
    29    29    30   ar
    30    30    31   ar
    31    31    32   ar
    32    32    33   ar
    33    33    34   ar
    34    28    24   ar
    35    34    29   ar
    36     7     1    1
    37     6     4    1
    38    13     8   ar
@<TRIPOS>MOLECULE
*****
 34 38 0 0 0
SMALL
GASTEIGER

@<TRIPOS>ATOM
      1 N          60.2264   88.3443    8.3908 N.3     1  UNL1       -0.2726
      2 C          59.9794   86.9231    7.9796 C.3     1  UNL1        0.0721
      3 C          60.7259   86.0304    8.9262 C.3     1  UNL1        0.0190
      4 C          61.4342   86.9000    9.9223 C.3     1  UNL1        0.0202
      5 C          62.0599   85.7765   10.6943 C.3     1  UNL1        0.0062
      6 C          62.3068   87.1977   11.1054 C.3     1  UNL1        0.0259
      7 C          61.1254   88.3301    9.5914 C.3     1  UNL1        0.0724
      8 C          62.9532   88.1902   12.0259 C.ar    1  UNL1        0.0050
      9 C          62.8881   89.6559   11.7135 C.ar    1  UNL1       -0.0021
     10 C          63.5345   90.6483   12.6339 C.ar    1  UNL1        0.0037
     11 C          64.2460   90.1751   13.8667 C.ar    1  UNL1        0.0736
     12 C          64.3112   88.7094   14.1790 C.ar    1  UNL1        0.0332
     13 C          63.6648   87.7170   13.2586 C.ar    1  UNL1        0.1361
     14 F          63.7299   86.2514   13.5710 F       1  UNL1       -0.2045
     15 C          64.8924   91.1676   14.7871 C.3     1  UNL1        0.4186
     16 F          65.5388   92.1601   15.7076 F       1  UNL1       -0.1659
     17 F          65.8623   91.5394   13.7050 F       1  UNL1       -0.1659
     18 F          63.9225   90.7957   15.8692 F       1  UNL1       -0.1659
     19 C          59.6716   89.5655    7.7192 C.3     1  UNL1        0.0730
     20 C          59.1729   89.4835    6.3069 C.3     1  UNL1        0.0294
     21 C          59.2433   90.6878    5.4154 C.3     1  UNL1        0.0666
     22 S          60.5697   91.1643    4.9020 S.3     1  UNL1       -0.0756
     23 C          63.0815   91.6267    2.8705 C.3     1  UNL1        0.1340
     24 N          61.7809   92.3737    2.8488 N.ar    1  UNL1       -0.2884
     25 C          60.6263   92.1611    3.7825 C.ar    1  UNL1        0.1932
     26 N          59.5383   93.1204    3.4003 N.ar    1  UNL1       -0.1221
     27 N          60.0205   93.9258    2.2303 N.ar    1  UNL1       -0.1282
     28 C          61.4064   93.4644    1.8894 C.ar    1  UNL1        0.1683
     29 C          62.2668   93.9996    0.7834 C.ar    1  UNL1        0.0551
     30 C          63.2031   95.1415    1.0471 C.ar    1  UNL1        0.0062
     31 C          64.0635   95.6767   -0.0589 C.ar    1  UNL1        0.0208
     32 C          63.9876   95.0699   -1.4287 C.ar    1  UNL1        0.0989
     33 N          63.0514   93.9280   -1.6924 N.ar    1  UNL1       -0.2422
     34 C          62.1910   93.3928   -0.5863 C.ar    1  UNL1        0.1019
@<TRIPOS>BOND
     1    23    24    1
     2    24    25   ar
     3    25    22    1
     4    22    21    1
     5    21    20    1
     6    20    19    1
     7    19     1    1
     8     1     2    1
     9     2     3    1
    10     4     3    1
    11     4     5    1
    12     5     6    1
    13     6     8    1
    14     8     9   ar
    15     9    10   ar
    16    10    11   ar
    17    11    15    1
    18    15    16    1
    19    15    17    1
    20    15    18    1
    21    11    12   ar
    22    12    13   ar
    23    13    14    1
    24     4     7    1
    25    25    26   ar
    26    26    27   ar
    27    27    28   ar
    28    28    29    1
    29    29    30   ar
    30    30    31   ar
    31    31    32   ar
    32    32    33   ar
    33    33    34   ar
    34    28    24   ar
    35    34    29   ar
    36     7     1    1
    37     6     4    1
    38    13     8   ar
