@<TRIPOS>MOLECULE
*****
 45 48 0 0 0
SMALL
GASTEIGER

@<TRIPOS>ATOM
      1 N          61.7622   90.0034   11.4583 N.3     1  UNL1       -0.2699
      2 C          63.3170   91.4754    9.9866 C.3     1  UNL1        0.0188
      3 C          63.0107   90.1614   10.6420 C.3     1  UNL1        0.0722
      4 C          60.4199   90.0351   10.7895 C.3     1  UNL1        0.0924
      5 C          60.1335   89.1167    9.6387 C.3     1  UNL1        0.0950
      6 N          60.1223   89.6514    8.2372 N.am    1  UNL1       -0.2706
      7 C          59.3062   88.9682    7.1803 C.2     1  UNL1        0.4020
      8 O          58.5012   87.7502    7.5248 O.2     1  UNL1       -0.2264
      9 H          60.6506   90.4508    8.0111 H       1  UNL1        0.1527
     10 O          59.2950   89.5029    5.7789 O.3     1  UNL1       -0.4296
     11 C          59.1387   90.9754    5.5392 C.3     1  UNL1        0.2382
     12 C          59.9343   91.6482    4.4602 C.ar    1  UNL1        0.0405
     13 C          61.3791   91.2960    4.2632 C.ar    1  UNL1        0.0025
     14 C          62.1747   91.9688    3.1843 C.ar    1  UNL1        0.0205
     15 C          61.5256   92.9939    2.3022 C.ar    1  UNL1        0.0989
     16 N          60.0810   93.3461    2.4992 N.ar    1  UNL1       -0.2425
     17 C          59.2853   92.6733    3.5782 C.ar    1  UNL1        0.0982
     18 C          59.8582   87.6636    9.8892 C.3     1  UNL1        0.0474
     19 C          60.9844   86.6730    9.8714 C.ar    1  UNL1       -0.0205
     20 C          61.6508   86.3181    8.5752 C.ar    1  UNL1       -0.0042
     21 C          62.7770   85.3275    8.5574 C.ar    1  UNL1       -0.0003
     22 C          63.2369   84.6918    9.8359 C.ar    1  UNL1       -0.0000
     23 C          62.5706   85.0466   11.1320 C.ar    1  UNL1       -0.0003
     24 C          61.4443   86.0373   11.1498 C.ar    1  UNL1       -0.0042
     25 C          61.8560   89.8139   12.9432 C.3     1  UNL1        0.0924
     26 C          63.1988   89.7688   13.6102 C.3     1  UNL1        0.0950
     27 N          63.9777   88.4873   13.6423 N.am    1  UNL1       -0.2706
     28 C          64.0651   87.6944   14.9126 C.2     1  UNL1        0.4020
     29 O          63.3737   88.1830   16.1508 O.2     1  UNL1       -0.2264
     30 H          64.4315   88.1666   12.8297 H       1  UNL1        0.1527
     31 O          64.8440   86.4129   14.9447 O.3     1  UNL1       -0.4296
     32 C          64.2537   85.1923   15.5864 C.3     1  UNL1        0.2382
     33 C          63.8410   84.0250   14.7394 C.ar    1  UNL1        0.0405
     34 C          62.5623   83.2988   15.0352 C.ar    1  UNL1        0.0025
     35 C          62.1497   82.1315   14.1883 C.ar    1  UNL1        0.0205
     36 C          63.0157   81.6906   13.0457 C.ar    1  UNL1        0.0989
     37 N          64.2944   82.4169   12.7499 N.ar    1  UNL1       -0.2425
     38 C          64.7070   83.5841   13.5968 C.ar    1  UNL1        0.0982
     39 C          63.7628   91.0054   14.2451 C.3     1  UNL1        0.0474
     40 C          65.1807   91.4098   13.9699 C.ar    1  UNL1       -0.0205
     41 C          65.5428   92.0239   12.6501 C.ar    1  UNL1       -0.0042
     42 C          66.9608   92.4284   12.3750 C.ar    1  UNL1       -0.0003
     43 C          68.0167   92.2187   13.4195 C.ar    1  UNL1       -0.0000
     44 C          67.6546   91.6046   14.7393 C.ar    1  UNL1       -0.0003
     45 C          66.2366   91.2002   15.0145 C.ar    1  UNL1       -0.0042
@<TRIPOS>BOND
     1     2     3    1
     2     3     1    1
     3     1    25    1
     4    26    25    1
     5    26    39    1
     6    39    40    1
     7    40    41   ar
     8    41    42   ar
     9    42    43   ar
    10    43    44   ar
    11    44    45   ar
    12    26    27    1
    13    27    28   am
    14    28    29    2
    15    28    31    1
    16    31    32    1
    17    32    33    1
    18    33    34   ar
    19    34    35   ar
    20    35    36   ar
    21    36    37   ar
    22    37    38   ar
    23     1     4    1
    24     5     4    1
    25     5    18    1
    26    18    19    1
    27    19    20   ar
    28    20    21   ar
    29    21    22   ar
    30    22    23   ar
    31    23    24   ar
    32     5     6    1
    33     6     7   am
    34     7     8    2
    35     7    10    1
    36    10    11    1
    37    11    12    1
    38    12    13   ar
    39    13    14   ar
    40    14    15   ar
    41    15    16   ar
    42    16    17   ar
    43    45    40   ar
    44    38    33   ar
    45    24    19   ar
    46    17    12   ar
    47    27    30    1
    48     6     9    1
@<TRIPOS>MOLECULE
*****
 45 48 0 0 0
SMALL
GASTEIGER

@<TRIPOS>ATOM
      1 N          63.6154   87.0707   15.8443 N.3     1  UNL1       -0.2699
      2 C          62.6336   86.4610   18.1712 C.3     1  UNL1        0.0188
      3 C          63.0254   86.0580   16.7804 C.3     1  UNL1        0.0722
      4 C          64.3092   86.6206   14.5928 C.3     1  UNL1        0.0924
      5 C          63.7677   85.4607   13.8109 C.3     1  UNL1        0.0950
      6 N          62.4130   85.5530   13.1733 N.am    1  UNL1       -0.2706
      7 C          62.1846   86.4978   12.0309 C.2     1  UNL1        0.4020
      8 O          63.3108   87.3503   11.5260 O.2     1  UNL1       -0.2264
      9 H          61.6739   84.9934   13.5046 H       1  UNL1        0.1527
     10 O          60.8301   86.5900   11.3933 O.3     1  UNL1       -0.4296
     11 C          60.6918   87.1300   10.0006 C.3     1  UNL1        0.2382
     12 C          61.0682   86.2778    8.8251 C.ar    1  UNL1        0.0405
     13 C          62.4664   85.7494    8.6988 C.ar    1  UNL1        0.0025
     14 C          62.8428   84.8972    7.5232 C.ar    1  UNL1        0.0205
     15 C          61.8211   84.5734    6.4738 C.ar    1  UNL1        0.0989
     16 N          60.4230   85.1018    6.6000 N.ar    1  UNL1       -0.2425
     17 C          60.0465   85.9540    7.7757 C.ar    1  UNL1        0.0982
     18 C          64.5808   84.2085   13.6666 C.3     1  UNL1        0.0474
     19 C          64.1288   83.1240   12.7341 C.ar    1  UNL1       -0.0205
     20 C          64.3980   83.2394   11.2630 C.ar    1  UNL1       -0.0042
     21 C          63.9460   82.1549   10.3305 C.ar    1  UNL1       -0.0003
     22 C          63.2246   80.9551   10.8691 C.ar    1  UNL1       -0.0000
     23 C          62.9554   80.8397   12.3402 C.ar    1  UNL1       -0.0003
     24 C          63.4074   81.9243   13.2727 C.ar    1  UNL1       -0.0042
     25 C          63.5117   88.5335   16.1596 C.3     1  UNL1        0.0924
     26 C          63.5899   89.5461   15.0558 C.3     1  UNL1        0.0950
     27 N          64.8471   90.3387   14.8528 N.am    1  UNL1       -0.2706
     28 C          65.0200   91.6601   15.5413 C.2     1  UNL1        0.4020
     29 O          63.9358   92.1888   16.4328 O.2     1  UNL1       -0.2264
     30 H          65.5587   89.9917   14.2676 H       1  UNL1        0.1527
     31 O          66.2771   92.4527   15.3383 O.3     1  UNL1       -0.4296
     32 C          67.2309   92.0788   14.2426 C.3     1  UNL1        0.2382
     33 C          67.0703   92.6713   12.8739 C.ar    1  UNL1        0.0405
     34 C          67.6822   91.9908   11.6855 C.ar    1  UNL1        0.0025
     35 C          67.5216   92.5833   10.3169 C.ar    1  UNL1        0.0205
     36 C          66.7491   93.8564   10.1367 C.ar    1  UNL1        0.0989
     37 N          66.1372   94.5370   11.3251 N.ar    1  UNL1       -0.2425
     38 C          66.2978   93.9444   12.6937 C.ar    1  UNL1        0.0982
     39 C          62.4109   89.7660   14.1549 C.3     1  UNL1        0.0474
     40 C          62.6188   90.2660   12.7561 C.ar    1  UNL1       -0.0205
     41 C          61.5393   90.0919   11.7291 C.ar    1  UNL1       -0.0042
     42 C          61.7472   90.5919   10.3303 C.ar    1  UNL1       -0.0003
     43 C          63.0345   91.2660    9.9583 C.ar    1  UNL1       -0.0000
     44 C          64.1140   91.4402   10.9852 C.ar    1  UNL1       -0.0003
     45 C          63.9061   90.9401   12.3841 C.ar    1  UNL1       -0.0042
@<TRIPOS>BOND
     1     2     3    1
     2     3     1    1
     3     1    25    1
     4    26    25    1
     5    26    39    1
     6    39    40    1
     7    40    41   ar
     8    41    42   ar
     9    42    43   ar
    10    43    44   ar
    11    44    45   ar
    12    26    27    1
    13    27    28   am
    14    28    29    2
    15    28    31    1
    16    31    32    1
    17    32    33    1
    18    33    34   ar
    19    34    35   ar
    20    35    36   ar
    21    36    37   ar
    22    37    38   ar
    23     1     4    1
    24     5     4    1
    25     5    18    1
    26    18    19    1
    27    19    20   ar
    28    20    21   ar
    29    21    22   ar
    30    22    23   ar
    31    23    24   ar
    32     5     6    1
    33     6     7   am
    34     7     8    2
    35     7    10    1
    36    10    11    1
    37    11    12    1
    38    12    13   ar
    39    13    14   ar
    40    14    15   ar
    41    15    16   ar
    42    16    17   ar
    43    45    40   ar
    44    38    33   ar
    45    24    19   ar
    46    17    12   ar
    47    27    30    1
    48     6     9    1
@<TRIPOS>MOLECULE
*****
 45 48 0 0 0
SMALL
GASTEIGER

@<TRIPOS>ATOM
      1 N          61.8984   89.3564   12.4692 N.3     1  UNL1       -0.2699
      2 C          60.0741   90.6526   11.1495 C.3     1  UNL1        0.0188
      3 C          60.4531   89.6066   12.1556 C.3     1  UNL1        0.0722
      4 C          62.7069   88.4399   11.5995 C.3     1  UNL1        0.0924
      5 C          62.0171   87.4577   10.6998 C.3     1  UNL1        0.0950
      6 N          61.7719   87.8026    9.2607 N.am    1  UNL1       -0.2706
      7 C          60.3687   87.8795    8.7364 C.2     1  UNL1        0.4020
      8 O          59.2105   87.6115    9.6512 O.2     1  UNL1       -0.2264
      9 H          62.5321   87.9785    8.6603 H       1  UNL1        0.1527
     10 O          60.1236   88.2244    7.2974 O.3     1  UNL1       -0.4296
     11 C          58.9309   89.0508    6.9168 C.3     1  UNL1        0.2382
     12 C          59.0801   90.1755    5.9357 C.ar    1  UNL1        0.0405
     13 C          60.4357   90.5270    5.3979 C.ar    1  UNL1        0.0025
     14 C          60.5848   91.6517    4.4168 C.ar    1  UNL1        0.0205
     15 C          59.3785   92.4251    3.9734 C.ar    1  UNL1        0.0989
     16 N          58.0230   92.0737    4.5110 N.ar    1  UNL1       -0.2425
     17 C          57.8738   90.9489    5.4922 C.ar    1  UNL1        0.0982
     18 C          61.5724   86.1305   11.2392 C.3     1  UNL1        0.0474
     19 C          62.5225   84.9699   11.2525 C.ar    1  UNL1       -0.0205
     20 C          62.8756   84.3044   12.5496 C.ar    1  UNL1       -0.0042
     21 C          63.8257   83.1438   12.5628 C.ar    1  UNL1       -0.0003
     22 C          64.4228   82.6486   11.2790 C.ar    1  UNL1       -0.0000
     23 C          64.0698   83.3141    9.9818 C.ar    1  UNL1       -0.0003
     24 C          63.1196   84.4748    9.9686 C.ar    1  UNL1       -0.0042
     25 C          62.5353   90.0226   13.6526 C.3     1  UNL1        0.0924
     26 C          64.0288   90.1329   13.7374 C.3     1  UNL1        0.0950
     27 N          64.7275   91.3228   13.1492 N.am    1  UNL1       -0.2706
     28 C          65.5126   92.2448   14.0344 C.2     1  UNL1        0.4020
     29 O          65.5990   91.9770   15.5077 O.2     1  UNL1       -0.2264
     30 H          64.6709   91.4985   12.1822 H       1  UNL1        0.1527
     31 O          66.2114   93.4346   13.4462 O.3     1  UNL1       -0.4296
     32 C          65.8339   93.9266   12.0804 C.3     1  UNL1        0.2382
     33 C          66.7115   93.6189   10.9034 C.ar    1  UNL1        0.0405
     34 C          67.3898   92.2849   10.8020 C.ar    1  UNL1        0.0025
     35 C          68.2673   91.9772    9.6251 C.ar    1  UNL1        0.0205
     36 C          68.4664   93.0035    8.5494 C.ar    1  UNL1        0.0989
     37 N          67.7881   94.3375    8.6508 N.ar    1  UNL1       -0.2425
     38 C          66.9106   94.6452    9.8277 C.ar    1  UNL1        0.0982
     39 C          64.8236   89.0533   14.4104 C.3     1  UNL1        0.0474
     40 C          64.1407   88.0756   15.3201 C.ar    1  UNL1       -0.0205
     41 C          64.2400   86.6035   15.0492 C.ar    1  UNL1       -0.0042
     42 C          63.5571   85.6258   15.9589 C.ar    1  UNL1       -0.0003
     43 C          62.7748   86.1200   17.1396 C.ar    1  UNL1       -0.0000
     44 C          62.6755   87.5920   17.4105 C.ar    1  UNL1       -0.0003
     45 C          63.3584   88.5698   16.5007 C.ar    1  UNL1       -0.0042
@<TRIPOS>BOND
     1     2     3    1
     2     3     1    1
     3     1    25    1
     4    26    25    1
     5    26    39    1
     6    39    40    1
     7    40    41   ar
     8    41    42   ar
     9    42    43   ar
    10    43    44   ar
    11    44    45   ar
    12    26    27    1
    13    27    28   am
    14    28    29    2
    15    28    31    1
    16    31    32    1
    17    32    33    1
    18    33    34   ar
    19    34    35   ar
    20    35    36   ar
    21    36    37   ar
    22    37    38   ar
    23     1     4    1
    24     5     4    1
    25     5    18    1
    26    18    19    1
    27    19    20   ar
    28    20    21   ar
    29    21    22   ar
    30    22    23   ar
    31    23    24   ar
    32     5     6    1
    33     6     7   am
    34     7     8    2
    35     7    10    1
    36    10    11    1
    37    11    12    1
    38    12    13   ar
    39    13    14   ar
    40    14    15   ar
    41    15    16   ar
    42    16    17   ar
    43    45    40   ar
    44    38    33   ar
    45    24    19   ar
    46    17    12   ar
    47    27    30    1
    48     6     9    1
@<TRIPOS>MOLECULE
*****
 45 48 0 0 0
SMALL
GASTEIGER

@<TRIPOS>ATOM
      1 N          62.0070   89.9080   11.6046 N.3     1  UNL1       -0.2699
      2 C          63.2158   91.5372    9.9815 C.3     1  UNL1        0.0188
      3 C          62.9896   90.1467   10.4968 C.3     1  UNL1        0.0722
      4 C          62.3939   90.1951   13.0252 C.3     1  UNL1        0.0924
      5 C          63.8322   90.4349   13.3769 C.3     1  UNL1        0.0950
      6 N          64.4370   91.7929   13.1764 N.am    1  UNL1       -0.2706
      7 C          65.7363   92.1408   13.8402 C.2     1  UNL1        0.4020
      8 O          66.4309   91.1306   14.7046 O.2     1  UNL1       -0.2264
      9 H          63.9811   92.4559   12.6090 H       1  UNL1        0.1527
     10 O          66.3411   93.4987   13.6397 O.3     1  UNL1       -0.4296
     11 C          66.1345   94.2280   12.3452 C.3     1  UNL1        0.2382
     12 C          66.8619   93.7850   11.1105 C.ar    1  UNL1        0.0405
     13 C          67.4928   92.4251   11.0589 C.ar    1  UNL1        0.0025
     14 C          68.2202   91.9821    9.8241 C.ar    1  UNL1        0.0205
     15 C          68.3167   92.8991    8.6409 C.ar    1  UNL1        0.0989
     16 N          67.6858   94.2589    8.6925 N.ar    1  UNL1       -0.2425
     17 C          66.9584   94.7020    9.9273 C.ar    1  UNL1        0.0982
     18 C          64.6658   89.3168   13.9291 C.3     1  UNL1        0.0474
     19 C          64.1237   88.4477   15.0249 C.ar    1  UNL1       -0.0205
     20 C          64.2997   86.9595   14.9583 C.ar    1  UNL1       -0.0042
     21 C          63.7575   86.0904   16.0540 C.ar    1  UNL1       -0.0003
     22 C          63.0393   86.7094   17.2164 C.ar    1  UNL1       -0.0000
     23 C          62.8633   88.1976   17.2830 C.ar    1  UNL1       -0.0003
     24 C          63.4055   89.0667   16.1872 C.ar    1  UNL1       -0.0042
     25 C          60.6375   89.3822   11.2920 C.3     1  UNL1        0.0924
     26 C          60.4739   87.9975   10.7388 C.3     1  UNL1        0.0950
     27 N          60.5937   86.8087   11.6456 N.am    1  UNL1       -0.2706
     28 C          61.9438   86.3627   12.1232 C.2     1  UNL1        0.4020
     29 O          63.1743   87.1055   11.6941 O.2     1  UNL1       -0.2264
     30 H          59.7861   86.3211   11.9272 H       1  UNL1        0.1527
     31 O          62.0636   85.1738   13.0299 O.3     1  UNL1       -0.4296
     32 C          63.1604   84.1736   12.8143 C.3     1  UNL1        0.2382
     33 C          62.8784   82.7077   12.9622 C.ar    1  UNL1        0.0405
     34 C          63.0391   81.7907   11.7862 C.ar    1  UNL1        0.0025
     35 C          62.7571   80.3249   11.9341 C.ar    1  UNL1        0.0205
     36 C          62.3144   79.7762   13.2581 C.ar    1  UNL1        0.0989
     37 N          62.1538   80.6932   14.4342 N.ar    1  UNL1       -0.2425
     38 C          62.4358   82.1590   14.2862 C.ar    1  UNL1        0.0982
     39 C          60.1906   87.8018    9.2788 C.3     1  UNL1        0.0474
     40 C          60.9125   86.7342    8.5113 C.ar    1  UNL1       -0.0205
     41 C          60.1833   85.9335    7.4734 C.ar    1  UNL1       -0.0042
     42 C          60.9052   84.8660    6.7058 C.ar    1  UNL1       -0.0003
     43 C          62.3563   84.5990    6.9762 C.ar    1  UNL1       -0.0000
     44 C          63.0855   85.3996    8.0141 C.ar    1  UNL1       -0.0003
     45 C          62.3636   86.4673    8.7817 C.ar    1  UNL1       -0.0042
@<TRIPOS>BOND
     1     2     3    1
     2     3     1    1
     3     1    25    1
     4    26    25    1
     5    26    39    1
     6    39    40    1
     7    40    41   ar
     8    41    42   ar
     9    42    43   ar
    10    43    44   ar
    11    44    45   ar
    12    26    27    1
    13    27    28   am
    14    28    29    2
    15    28    31    1
    16    31    32    1
    17    32    33    1
    18    33    34   ar
    19    34    35   ar
    20    35    36   ar
    21    36    37   ar
    22    37    38   ar
    23     1     4    1
    24     5     4    1
    25     5    18    1
    26    18    19    1
    27    19    20   ar
    28    20    21   ar
    29    21    22   ar
    30    22    23   ar
    31    23    24   ar
    32     5     6    1
    33     6     7   am
    34     7     8    2
    35     7    10    1
    36    10    11    1
    37    11    12    1
    38    12    13   ar
    39    13    14   ar
    40    14    15   ar
    41    15    16   ar
    42    16    17   ar
    43    45    40   ar
    44    38    33   ar
    45    24    19   ar
    46    17    12   ar
    47    27    30    1
    48     6     9    1
@<TRIPOS>MOLECULE
*****
 45 48 0 0 0
SMALL
GASTEIGER

@<TRIPOS>ATOM
      1 N          60.7362   89.9011   11.8042 N.3     1  UNL1       -0.2699
      2 C          58.4849   88.9823   12.7192 C.3     1  UNL1        0.0188
      3 C          59.2669   90.0743   12.0514 C.3     1  UNL1        0.0722
      4 C          61.6820   89.7764   12.9618 C.3     1  UNL1        0.0924
      5 C          63.1576   89.6666   12.7162 C.3     1  UNL1        0.0950
      6 N          63.8845   88.4024   13.0679 N.am    1  UNL1       -0.2706
      7 C          64.0101   87.9838   14.5028 C.2     1  UNL1        0.4020
      8 O          63.4088   88.8294   15.5861 O.2     1  UNL1       -0.2264
      9 H          64.2791   87.8474   12.3569 H       1  UNL1        0.1527
     10 O          64.7369   86.7197   14.8544 O.3     1  UNL1       -0.4296
     11 C          64.0110   85.6054   15.5483 C.3     1  UNL1        0.2382
     12 C          63.7256   84.3268   14.8178 C.ar    1  UNL1        0.0405
     13 C          62.4547   83.5768   15.0869 C.ar    1  UNL1        0.0025
     14 C          62.1693   82.2982   14.3564 C.ar    1  UNL1        0.0205
     15 C          63.1547   81.7696   13.3567 C.ar    1  UNL1        0.0989
     16 N          64.4255   82.5195   13.0875 N.ar    1  UNL1       -0.2425
     17 C          64.7110   83.7981   13.8181 C.ar    1  UNL1        0.0982
     18 C          63.9065   90.8209   12.1190 C.3     1  UNL1        0.0474
     19 C          64.8259   91.6415   12.9741 C.ar    1  UNL1       -0.0205
     20 C          65.5833   92.7889   12.3743 C.ar    1  UNL1       -0.0042
     21 C          66.5027   93.6094   13.2295 C.ar    1  UNL1       -0.0003
     22 C          66.6648   93.2826   14.6845 C.ar    1  UNL1       -0.0000
     23 C          65.9074   92.1351   15.2842 C.ar    1  UNL1       -0.0003
     24 C          64.9879   91.3146   14.4290 C.ar    1  UNL1       -0.0042
     25 C          61.2598   89.8526   10.3994 C.3     1  UNL1        0.0924
     26 C          60.5302   89.0622    9.3539 C.3     1  UNL1        0.0950
     27 N          60.1986   89.6917    8.0334 N.am    1  UNL1       -0.2706
     28 C          59.2615   89.0009    7.0875 C.2     1  UNL1        0.4020
     29 O          58.6561   87.6806    7.4621 O.2     1  UNL1       -0.2264
     30 H          60.5959   90.5582    7.7875 H       1  UNL1        0.1527
     31 O          58.9299   89.6303    5.7670 O.3     1  UNL1       -0.4296
     32 C          59.0822   91.1111    5.5826 C.3     1  UNL1        0.2382
     33 C          59.9984   91.6445    4.5214 C.ar    1  UNL1        0.0405
     34 C          61.4203   91.1720    4.4513 C.ar    1  UNL1        0.0025
     35 C          62.3364   91.7054    3.3901 C.ar    1  UNL1        0.0205
     36 C          61.8306   92.7112    2.3989 C.ar    1  UNL1        0.0989
     37 N          60.4087   93.1837    2.4690 N.ar    1  UNL1       -0.2425
     38 C          59.4926   92.6503    3.5302 C.ar    1  UNL1        0.0982
     39 C          60.1322   87.6423    9.6290 C.3     1  UNL1        0.0474
     40 C          61.1848   86.5852    9.7851 C.ar    1  UNL1       -0.0205
     41 C          61.4567   85.9911   11.1353 C.ar    1  UNL1       -0.0042
     42 C          62.5093   84.9339   11.2914 C.ar    1  UNL1       -0.0003
     43 C          63.2900   84.4708   10.0972 C.ar    1  UNL1       -0.0000
     44 C          63.0181   85.0649    8.7470 C.ar    1  UNL1       -0.0003
     45 C          61.9654   86.1221    8.5909 C.ar    1  UNL1       -0.0042
@<TRIPOS>BOND
     1     2     3    1
     2     3     1    1
     3     1    25    1
     4    26    25    1
     5    26    39    1
     6    39    40    1
     7    40    41   ar
     8    41    42   ar
     9    42    43   ar
    10    43    44   ar
    11    44    45   ar
    12    26    27    1
    13    27    28   am
    14    28    29    2
    15    28    31    1
    16    31    32    1
    17    32    33    1
    18    33    34   ar
    19    34    35   ar
    20    35    36   ar
    21    36    37   ar
    22    37    38   ar
    23     1     4    1
    24     5     4    1
    25     5    18    1
    26    18    19    1
    27    19    20   ar
    28    20    21   ar
    29    21    22   ar
    30    22    23   ar
    31    23    24   ar
    32     5     6    1
    33     6     7   am
    34     7     8    2
    35     7    10    1
    36    10    11    1
    37    11    12    1
    38    12    13   ar
    39    13    14   ar
    40    14    15   ar
    41    15    16   ar
    42    16    17   ar
    43    45    40   ar
    44    38    33   ar
    45    24    19   ar
    46    17    12   ar
    47    27    30    1
    48     6     9    1
@<TRIPOS>MOLECULE
*****
 45 48 0 0 0
SMALL
GASTEIGER

@<TRIPOS>ATOM
      1 N          62.0419   89.8444   11.5463 N.3     1  UNL1       -0.2699
      2 C          63.3163   91.5120   10.0150 C.3     1  UNL1        0.0188
      3 C          63.2031   90.1578   10.6501 C.3     1  UNL1        0.0722
      4 C          60.6460   89.8576   10.9975 C.3     1  UNL1        0.0924
      5 C          60.2819   88.9603    9.8520 C.3     1  UNL1        0.0950
      6 N          60.1802   89.5198    8.4639 N.am    1  UNL1       -0.2706
      7 C          59.3497   88.8174    7.4311 C.2     1  UNL1        0.4020
      8 O          58.6209   87.5553    7.7862 O.2     1  UNL1       -0.2264
      9 H          60.6586   90.3481    8.2308 H       1  UNL1        0.1527
     10 O          59.2481   89.3769    6.0431 O.3     1  UNL1       -0.4296
     11 C          59.1270   90.8580    5.8385 C.3     1  UNL1        0.2382
     12 C          59.8430   91.5186    4.6980 C.ar    1  UNL1        0.0405
     13 C          61.3008   91.2481    4.4701 C.ar    1  UNL1        0.0025
     14 C          62.0168   91.9087    3.3295 C.ar    1  UNL1        0.0205
     15 C          61.2751   92.8397    2.4168 C.ar    1  UNL1        0.0989
     16 N          59.8174   93.1102    2.6446 N.ar    1  UNL1       -0.2425
     17 C          59.1013   92.4496    3.7852 C.ar    1  UNL1        0.0982
     18 C          60.0196   87.5034   10.0944 C.3     1  UNL1        0.0474
     19 C          61.1393   86.5114    9.9849 C.ar    1  UNL1       -0.0205
     20 C          61.7818   86.2493    8.6550 C.ar    1  UNL1       -0.0042
     21 C          62.9015   85.2573    8.5455 C.ar    1  UNL1       -0.0003
     22 C          63.3788   84.5272    9.7659 C.ar    1  UNL1       -0.0000
     23 C          62.7363   84.7892   11.0958 C.ar    1  UNL1       -0.0003
     24 C          61.6165   85.7814   11.2052 C.ar    1  UNL1       -0.0042
     25 C          62.2766   89.5177   12.9914 C.3     1  UNL1        0.0924
     26 C          63.2062   90.3636   13.8101 C.3     1  UNL1        0.0950
     27 N          63.8240   91.5929   13.2126 N.am    1  UNL1       -0.2706
     28 C          65.2886   91.8606   13.3949 C.2     1  UNL1        0.4020
     29 O          66.1355   90.8989   14.1746 O.2     1  UNL1       -0.2264
     30 H          63.2682   92.2242   12.7009 H       1  UNL1        0.1527
     31 O          65.9065   93.0899   12.7974 O.3     1  UNL1       -0.4296
     32 C          66.5167   93.0330   11.4283 C.3     1  UNL1        0.2382
     33 C          66.7016   94.2936   10.6366 C.ar    1  UNL1        0.0405
     34 C          67.4112   94.2523    9.3157 C.ar    1  UNL1        0.0025
     35 C          67.5961   95.5129    8.5241 C.ar    1  UNL1        0.0205
     36 C          67.0715   96.8147    9.0534 C.ar    1  UNL1        0.0989
     37 N          66.3619   96.8559   10.3743 N.ar    1  UNL1       -0.2425
     38 C          66.1770   95.5954   11.1659 C.ar    1  UNL1        0.0982
     39 C          63.5179   89.9801   15.2264 C.3     1  UNL1        0.0474
     40 C          63.6155   88.5326   15.6073 C.ar    1  UNL1       -0.0205
     41 C          63.0119   88.0534   16.8943 C.ar    1  UNL1       -0.0042
     42 C          63.1094   86.6059   17.2752 C.ar    1  UNL1       -0.0003
     43 C          63.8105   85.6375   16.3693 C.ar    1  UNL1       -0.0000
     44 C          64.4140   86.1167   15.0824 C.ar    1  UNL1       -0.0003
     45 C          64.3165   87.5642   14.7014 C.ar    1  UNL1       -0.0042
@<TRIPOS>BOND
     1     2     3    1
     2     3     1    1
     3     1    25    1
     4    26    25    1
     5    26    39    1
     6    39    40    1
     7    40    41   ar
     8    41    42   ar
     9    42    43   ar
    10    43    44   ar
    11    44    45   ar
    12    26    27    1
    13    27    28   am
    14    28    29    2
    15    28    31    1
    16    31    32    1
    17    32    33    1
    18    33    34   ar
    19    34    35   ar
    20    35    36   ar
    21    36    37   ar
    22    37    38   ar
    23     1     4    1
    24     5     4    1
    25     5    18    1
    26    18    19    1
    27    19    20   ar
    28    20    21   ar
    29    21    22   ar
    30    22    23   ar
    31    23    24   ar
    32     5     6    1
    33     6     7   am
    34     7     8    2
    35     7    10    1
    36    10    11    1
    37    11    12    1
    38    12    13   ar
    39    13    14   ar
    40    14    15   ar
    41    15    16   ar
    42    16    17   ar
    43    45    40   ar
    44    38    33   ar
    45    24    19   ar
    46    17    12   ar
    47    27    30    1
    48     6     9    1
@<TRIPOS>MOLECULE
*****
 45 48 0 0 0
SMALL
GASTEIGER

@<TRIPOS>ATOM
      1 N          63.6441   86.7944   15.9141 N.3     1  UNL1       -0.2699
      2 C          62.7375   86.7394   18.3483 C.3     1  UNL1        0.0188
      3 C          62.8265   86.1288   16.9810 C.3     1  UNL1        0.0722
      4 C          64.4743   85.9660   14.9790 C.3     1  UNL1        0.0924
      5 C          63.8398   84.8538   14.1979 C.3     1  UNL1        0.0950
      6 N          62.7567   85.1572   13.2054 N.am    1  UNL1       -0.2706
      7 C          62.9275   84.7687   11.7667 C.2     1  UNL1        0.4020
      8 O          64.1812   84.0766   11.3204 O.2     1  UNL1       -0.2264
      9 H          61.9338   85.6114   13.4983 H       1  UNL1        0.1527
     10 O          61.8444   85.0721   10.7743 O.3     1  UNL1       -0.4296
     11 C          62.1732   85.7994    9.5043 C.3     1  UNL1        0.2382
     12 C          61.1104   86.5820    8.7915 C.ar    1  UNL1        0.0405
     13 C          61.0171   88.0669    8.9825 C.ar    1  UNL1        0.0025
     14 C          59.9544   88.8495    8.2698 C.ar    1  UNL1        0.0205
     15 C          58.9848   88.1472    7.3660 C.ar    1  UNL1        0.0989
     16 N          59.0781   86.6624    7.1749 N.ar    1  UNL1       -0.2425
     17 C          60.1409   85.8797    7.8877 C.ar    1  UNL1        0.0982
     18 C          64.2883   83.4381   14.4091 C.3     1  UNL1        0.0474
     19 C          63.3581   82.3027   14.1003 C.ar    1  UNL1       -0.0205
     20 C          61.9457   82.3317   14.6047 C.ar    1  UNL1       -0.0042
     21 C          61.0155   81.1963   14.2959 C.ar    1  UNL1       -0.0003
     22 C          61.4976   80.0317   13.4826 C.ar    1  UNL1       -0.0000
     23 C          62.9099   80.0026   12.9781 C.ar    1  UNL1       -0.0003
     24 C          63.8402   81.1382   13.2870 C.ar    1  UNL1       -0.0042
     25 C          63.6314   88.2886   15.7823 C.3     1  UNL1        0.0924
     26 C          64.1334   88.9349   14.5252 C.3     1  UNL1        0.0950
     27 N          65.1208   90.0612   14.6036 N.am    1  UNL1       -0.2706
     28 C          64.7406   91.3465   15.2771 C.2     1  UNL1        0.4020
     29 O          63.3728   91.5054   15.8720 O.2     1  UNL1       -0.2264
     30 H          66.0186   89.9569   14.2132 H       1  UNL1        0.1527
     31 O          65.7280   92.4728   15.3555 O.3     1  UNL1       -0.4296
     32 C          67.0460   92.3655   14.6475 C.3     1  UNL1        0.2382
     33 C          67.1065   92.4837   13.1533 C.ar    1  UNL1        0.0405
     34 C          65.9585   93.0897   12.4018 C.ar    1  UNL1        0.0025
     35 C          66.0190   93.2080   10.9078 C.ar    1  UNL1        0.0205
     36 C          67.2276   92.7202   10.1652 C.ar    1  UNL1        0.0989
     37 N          68.3756   92.1142   10.9166 N.ar    1  UNL1       -0.2425
     38 C          68.3151   91.9960   12.4107 C.ar    1  UNL1        0.0982
     39 C          63.6479   88.4547   13.1895 C.3     1  UNL1        0.0474
     40 C          62.8128   89.3544   12.3274 C.ar    1  UNL1       -0.0205
     41 C          61.3208   89.3680   12.4819 C.ar    1  UNL1       -0.0042
     42 C          60.4858   90.2677   11.6197 C.ar    1  UNL1       -0.0003
     43 C          61.1426   91.1536   10.6030 C.ar    1  UNL1       -0.0000
     44 C          62.6346   91.1400   10.4486 C.ar    1  UNL1       -0.0003
     45 C          63.4697   90.2403   11.3107 C.ar    1  UNL1       -0.0042
@<TRIPOS>BOND
     1     2     3    1
     2     3     1    1
     3     1    25    1
     4    26    25    1
     5    26    39    1
     6    39    40    1
     7    40    41   ar
     8    41    42   ar
     9    42    43   ar
    10    43    44   ar
    11    44    45   ar
    12    26    27    1
    13    27    28   am
    14    28    29    2
    15    28    31    1
    16    31    32    1
    17    32    33    1
    18    33    34   ar
    19    34    35   ar
    20    35    36   ar
    21    36    37   ar
    22    37    38   ar
    23     1     4    1
    24     5     4    1
    25     5    18    1
    26    18    19    1
    27    19    20   ar
    28    20    21   ar
    29    21    22   ar
    30    22    23   ar
    31    23    24   ar
    32     5     6    1
    33     6     7   am
    34     7     8    2
    35     7    10    1
    36    10    11    1
    37    11    12    1
    38    12    13   ar
    39    13    14   ar
    40    14    15   ar
    41    15    16   ar
    42    16    17   ar
    43    45    40   ar
    44    38    33   ar
    45    24    19   ar
    46    17    12   ar
    47    27    30    1
    48     6     9    1
@<TRIPOS>MOLECULE
*****
 45 48 0 0 0
SMALL
GASTEIGER

@<TRIPOS>ATOM
      1 N          61.9432   90.2599   11.0766 N.3     1  UNL1       -0.2699
      2 C          59.4359   90.7404   11.5590 C.3     1  UNL1        0.0188
      3 C          60.7364   90.1057   11.9540 C.3     1  UNL1        0.0722
      4 C          62.9657   91.3129   11.3858 C.3     1  UNL1        0.0924
      5 C          64.0287   91.0482   12.4104 C.3     1  UNL1        0.0950
      6 N          64.0417   89.7484   13.1592 N.am    1  UNL1       -0.2706
      7 C          63.6923   89.7195   14.6176 C.2     1  UNL1        0.4020
      8 O          63.3299   90.9903   15.3274 O.2     1  UNL1       -0.2264
      9 H          64.2796   88.9144   12.6933 H       1  UNL1        0.1527
     10 O          63.7053   88.4198   15.3662 O.3     1  UNL1       -0.4296
     11 C          64.6192   87.3127   14.9311 C.3     1  UNL1        0.2382
     12 C          64.1477   85.8895   14.9762 C.ar    1  UNL1        0.0405
     13 C          64.8364   84.8446   14.1491 C.ar    1  UNL1        0.0025
     14 C          64.3648   83.4214   14.1942 C.ar    1  UNL1        0.0205
     15 C          63.2046   83.0430   15.0664 C.ar    1  UNL1        0.0989
     16 N          62.5159   84.0878   15.8934 N.ar    1  UNL1       -0.2425
     17 C          62.9875   85.5111   15.8484 C.ar    1  UNL1        0.0982
     18 C          65.0787   92.0833   12.6865 C.3     1  UNL1        0.0474
     19 C          65.9672   92.5645   11.5779 C.ar    1  UNL1       -0.0205
     20 C          65.5800   93.7722   10.7770 C.ar    1  UNL1       -0.0042
     21 C          66.4685   94.2534    9.6684 C.ar    1  UNL1       -0.0003
     22 C          67.7443   93.5269    9.3607 C.ar    1  UNL1       -0.0000
     23 C          68.1315   92.3191   10.1616 C.ar    1  UNL1       -0.0003
     24 C          67.2429   91.8379   11.2702 C.ar    1  UNL1       -0.0042
     25 C          62.1274   89.3609    9.8901 C.3     1  UNL1        0.0924
     26 C          60.9341   88.7370    9.2293 C.3     1  UNL1        0.0950
     27 N          60.1820   89.4910    8.1730 N.am    1  UNL1       -0.2706
     28 C          59.4116   88.7452    7.1241 C.2     1  UNL1        0.4020
     29 O          59.3932   87.2453    7.1316 O.2     1  UNL1       -0.2264
     30 H          60.1941   90.4754    8.1681 H       1  UNL1        0.1527
     31 O          58.6595   89.4991    6.0678 O.3     1  UNL1       -0.4296
     32 C          58.8397   90.9822    5.9331 C.3     1  UNL1        0.2382
     33 C          59.6759   91.5380    4.8187 C.ar    1  UNL1        0.0405
     34 C          61.0997   91.0950    4.6566 C.ar    1  UNL1        0.0025
     35 C          61.9359   91.6508    3.5422 C.ar    1  UNL1        0.0205
     36 C          61.3481   92.6496    2.5899 C.ar    1  UNL1        0.0989
     37 N          59.9242   93.0925    2.7519 N.ar    1  UNL1       -0.2425
     38 C          59.0881   92.5367    3.8663 C.ar    1  UNL1        0.0982
     39 C          60.4928   87.3590    9.6250 C.3     1  UNL1        0.0474
     40 C          61.5027   86.2584    9.7617 C.ar    1  UNL1       -0.0205
     41 C          61.7161   85.5972   11.0911 C.ar    1  UNL1       -0.0042
     42 C          62.7260   84.4966   11.2279 C.ar    1  UNL1       -0.0003
     43 C          63.5226   84.0572   10.0352 C.ar    1  UNL1       -0.0000
     44 C          63.3092   84.7183    8.7058 C.ar    1  UNL1       -0.0003
     45 C          62.2992   85.8190    8.5690 C.ar    1  UNL1       -0.0042
@<TRIPOS>BOND
     1     2     3    1
     2     3     1    1
     3     1    25    1
     4    26    25    1
     5    26    39    1
     6    39    40    1
     7    40    41   ar
     8    41    42   ar
     9    42    43   ar
    10    43    44   ar
    11    44    45   ar
    12    26    27    1
    13    27    28   am
    14    28    29    2
    15    28    31    1
    16    31    32    1
    17    32    33    1
    18    33    34   ar
    19    34    35   ar
    20    35    36   ar
    21    36    37   ar
    22    37    38   ar
    23     1     4    1
    24     5     4    1
    25     5    18    1
    26    18    19    1
    27    19    20   ar
    28    20    21   ar
    29    21    22   ar
    30    22    23   ar
    31    23    24   ar
    32     5     6    1
    33     6     7   am
    34     7     8    2
    35     7    10    1
    36    10    11    1
    37    11    12    1
    38    12    13   ar
    39    13    14   ar
    40    14    15   ar
    41    15    16   ar
    42    16    17   ar
    43    45    40   ar
    44    38    33   ar
    45    24    19   ar
    46    17    12   ar
    47    27    30    1
    48     6     9    1
@<TRIPOS>MOLECULE
*****
 45 48 0 0 0
SMALL
GASTEIGER

@<TRIPOS>ATOM
      1 N          62.5811   90.2056   11.2143 N.3     1  UNL1       -0.2699
      2 C          60.0537   90.2295   11.8158 C.3     1  UNL1        0.0188
      3 C          61.1967   90.7365   10.9871 C.3     1  UNL1        0.0722
      4 C          63.7585   91.1334   11.1597 C.3     1  UNL1        0.0924
      5 C          64.4017   91.6044   12.4303 C.3     1  UNL1        0.0950
      6 N          64.0875   90.9209   13.7282 N.am    1  UNL1       -0.2706
      7 C          64.5778   91.5035   15.0205 C.2     1  UNL1        0.4020
      8 O          65.3823   92.7695   15.0151 O.2     1  UNL1       -0.2264
      9 H          63.5594   90.0900   13.7317 H       1  UNL1        0.1527
     10 O          64.2635   90.8201   16.3182 O.3     1  UNL1       -0.4296
     11 C          63.1244   89.8473   16.3970 C.3     1  UNL1        0.2382
     12 C          63.3795   88.3786   16.2301 C.ar    1  UNL1        0.0405
     13 C          64.1805   87.8845   15.0619 C.ar    1  UNL1        0.0025
     14 C          64.4356   86.4158   14.8950 C.ar    1  UNL1        0.0205
     15 C          63.8898   85.4412   15.8961 C.ar    1  UNL1        0.0989
     16 N          63.0889   85.9353   17.0641 N.ar    1  UNL1       -0.2425
     17 C          62.8337   87.4040   17.2311 C.ar    1  UNL1        0.0982
     18 C          65.3591   92.7587   12.4032 C.3     1  UNL1        0.0474
     19 C          66.2913   92.9328   11.2410 C.ar    1  UNL1       -0.0205
     20 C          67.4280   91.9747   11.0411 C.ar    1  UNL1       -0.0042
     21 C          68.3601   92.1488    9.8789 C.ar    1  UNL1       -0.0003
     22 C          68.1556   93.2810    8.9165 C.ar    1  UNL1       -0.0000
     23 C          67.0188   94.2391    9.1163 C.ar    1  UNL1       -0.0003
     24 C          66.0867   94.0650   10.2786 C.ar    1  UNL1       -0.0042
     25 C          62.7881   88.7469   11.4959 C.3     1  UNL1        0.0924
     26 C          62.0572   87.7159   10.6879 C.3     1  UNL1        0.0950
     27 N          61.7537   87.9733    9.2417 N.am    1  UNL1       -0.2706
     28 C          60.3358   87.9317    8.7540 C.2     1  UNL1        0.4020
     29 O          59.2214   87.6327    9.7125 O.2     1  UNL1       -0.2264
     30 H          62.4851   88.1696    8.6126 H       1  UNL1        0.1527
     31 O          60.0323   88.1891    7.3078 O.3     1  UNL1       -0.4296
     32 C          58.8750   89.0648    6.9286 C.3     1  UNL1        0.2382
     33 C          59.0699   90.1819    5.9466 C.ar    1  UNL1        0.0405
     34 C          60.4468   90.5161    5.4545 C.ar    1  UNL1        0.0025
     35 C          60.6417   91.6332    4.4726 C.ar    1  UNL1        0.0205
     36 C          59.4596   92.4160    3.9828 C.ar    1  UNL1        0.0989
     37 N          58.0826   92.0817    4.4749 N.ar    1  UNL1       -0.2425
     38 C          57.8878   90.9647    5.4569 C.ar    1  UNL1        0.0982
     39 C          61.6298   86.4275   11.3262 C.3     1  UNL1        0.0474
     40 C          62.4873   85.2040   11.1933 C.ar    1  UNL1       -0.0205
     41 C          62.7810   84.3595   12.3978 C.ar    1  UNL1       -0.0042
     42 C          63.6385   83.1360   12.2649 C.ar    1  UNL1       -0.0003
     43 C          64.2024   82.7570   10.9276 C.ar    1  UNL1       -0.0000
     44 C          63.9088   83.6015    9.7232 C.ar    1  UNL1       -0.0003
     45 C          63.0513   84.8250    9.8560 C.ar    1  UNL1       -0.0042
@<TRIPOS>BOND
     1     2     3    1
     2     3     1    1
     3     1    25    1
     4    26    25    1
     5    26    39    1
     6    39    40    1
     7    40    41   ar
     8    41    42   ar
     9    42    43   ar
    10    43    44   ar
    11    44    45   ar
    12    26    27    1
    13    27    28   am
    14    28    29    2
    15    28    31    1
    16    31    32    1
    17    32    33    1
    18    33    34   ar
    19    34    35   ar
    20    35    36   ar
    21    36    37   ar
    22    37    38   ar
    23     1     4    1
    24     5     4    1
    25     5    18    1
    26    18    19    1
    27    19    20   ar
    28    20    21   ar
    29    21    22   ar
    30    22    23   ar
    31    23    24   ar
    32     5     6    1
    33     6     7   am
    34     7     8    2
    35     7    10    1
    36    10    11    1
    37    11    12    1
    38    12    13   ar
    39    13    14   ar
    40    14    15   ar
    41    15    16   ar
    42    16    17   ar
    43    45    40   ar
    44    38    33   ar
    45    24    19   ar
    46    17    12   ar
    47    27    30    1
    48     6     9    1
