@<TRIPOS>MOLECULE
*****
 24 26 0 0 0
SMALL
GASTEIGER

@<TRIPOS>ATOM
      1 C          63.4202   88.1638   12.7356 C.ar    1  UNL1        0.1388
      2 C          62.5654   88.4827   11.5450 C.ar    1  UNL1        0.0538
      3 C          61.7441   87.4052   10.9012 C.ar    1  UNL1        0.0887
      4 N          61.7777   86.0089   11.4479 N.ar    1  UNL1       -0.2098
      5 C          62.6325   85.6900   12.6385 C.ar    1  UNL1        0.2539
      6 N          63.4538   86.7674   13.2823 N.ar    1  UNL1       -0.1948
      7 N          62.6662   84.2935   13.1852 N.ar    1  UNL1       -0.2008
      8 N          62.6522   83.0297   12.3773 N.ar    1  UNL1       -0.1673
      9 C          62.6971   81.8709   13.3286 C.ar    1  UNL1        0.0806
     10 C          62.6998   80.4193   12.9504 C.3     1  UNL1        0.0540
     11 C          62.7387   82.4184   14.7245 C.ar    1  UNL1        0.0313
     12 C          62.7196   83.9157   14.6359 C.ar    1  UNL1        0.0651
     13 C          62.7488   84.8679   15.7945 C.3     1  UNL1        0.0523
     14 C          60.8892   87.7242    9.7106 C.ar    1  UNL1        0.0370
     15 C          60.2344   86.6168    8.9392 C.ar    1  UNL1        0.0046
     16 C          59.3795   86.9357    7.7486 C.ar    1  UNL1        0.0207
     17 C          59.1795   88.3620    7.3294 C.ar    1  UNL1        0.0989
     18 N          59.8343   89.4694    8.1007 N.ar    1  UNL1       -0.2423
     19 C          60.6892   89.1504    9.2913 C.ar    1  UNL1        0.1003
     20 C          64.5250   91.0646   15.2084 C.3     1  UNL1        0.0950
     21 C          63.7037   89.9871   14.5645 C.2     1  UNL1        0.2277
     22 O          62.3446   89.6555   15.1059 O.2     1  UNL1       -0.2747
     23 N          64.2415   89.2413   13.3794 N.am    1  UNL1       -0.2692
     24 H          65.1335   89.4590   13.0242 H       1  UNL1        0.1563
@<TRIPOS>BOND
     1    20    21    1
     2    21    22    2
     3    21    23   am
     4    23     1    1
     5     1     2   ar
     6     2     3   ar
     7     3    14    1
     8    14    15   ar
     9    15    16   ar
    10    16    17   ar
    11    17    18   ar
    12    18    19   ar
    13     3     4   ar
    14     4     5   ar
    15     5     7    1
    16     7     8   ar
    17     8     9   ar
    18     9    10    1
    19     9    11   ar
    20    11    12   ar
    21    12    13    1
    22     5     6   ar
    23     6     1   ar
    24    19    14   ar
    25    12     7   ar
    26    23    24    1
@<TRIPOS>MOLECULE
*****
 24 26 0 0 0
SMALL
GASTEIGER

@<TRIPOS>ATOM
      1 C          62.7732   88.5122   11.5427 C.ar    1  UNL1        0.1388
      2 C          63.3145   89.6097   12.4101 C.ar    1  UNL1        0.0538
      3 C          63.9488   89.2797   13.7288 C.ar    1  UNL1        0.0887
      4 N          64.0418   87.8523   14.1800 N.ar    1  UNL1       -0.2098
      5 C          63.5005   86.7548   13.3126 C.ar    1  UNL1        0.2539
      6 N          62.8662   87.0847   11.9940 N.ar    1  UNL1       -0.1948
      7 N          63.5935   85.3272   13.7638 N.ar    1  UNL1       -0.2008
      8 N          63.6893   84.1250   12.8718 N.ar    1  UNL1       -0.1673
      9 C          63.7620   82.9061   13.7429 C.ar    1  UNL1        0.0806
     10 C          63.8672   81.4874   13.2671 C.3     1  UNL1        0.0540
     11 C          63.7112   83.3549   15.1733 C.ar    1  UNL1        0.0313
     12 C          63.6070   84.8512   15.1862 C.ar    1  UNL1        0.0651
     13 C          63.5299   85.7191   16.4072 C.3     1  UNL1        0.0523
     14 C          64.4901   90.3773   14.5962 C.ar    1  UNL1        0.0370
     15 C          65.8204   90.9949   14.2815 C.ar    1  UNL1        0.0046
     16 C          66.3617   92.0925   15.1488 C.ar    1  UNL1        0.0207
     17 C          65.5728   92.5725   16.3309 C.ar    1  UNL1        0.0989
     18 N          64.2425   91.9549   16.6456 N.ar    1  UNL1       -0.2423
     19 C          63.7012   90.8573   15.7782 C.ar    1  UNL1        0.1003
     20 C          60.0189   89.0525    8.7371 C.3     1  UNL1        0.0950
     21 C          60.6532   88.7226   10.0557 C.2     1  UNL1        0.2277
     22 O          59.8017   88.2731   11.2060 O.2     1  UNL1       -0.2747
     23 N          62.1389   88.8421   10.2241 N.am    1  UNL1       -0.2692
     24 H          62.6977   89.1371    9.4692 H       1  UNL1        0.1563
@<TRIPOS>BOND
     1    20    21    1
     2    21    22    2
     3    21    23   am
     4    23     1    1
     5     1     2   ar
     6     2     3   ar
     7     3    14    1
     8    14    15   ar
     9    15    16   ar
    10    16    17   ar
    11    17    18   ar
    12    18    19   ar
    13     3     4   ar
    14     4     5   ar
    15     5     7    1
    16     7     8   ar
    17     8     9   ar
    18     9    10    1
    19     9    11   ar
    20    11    12   ar
    21    12    13    1
    22     5     6   ar
    23     6     1   ar
    24    19    14   ar
    25    12     7   ar
    26    23    24    1
@<TRIPOS>MOLECULE
*****
 24 26 0 0 0
SMALL
GASTEIGER

@<TRIPOS>ATOM
      1 C          61.0943   87.2595   10.8087 C.ar    1  UNL1        0.1388
      2 C          61.5082   85.9093   11.3143 C.ar    1  UNL1        0.0538
      3 C          62.6470   85.7880   12.2830 C.ar    1  UNL1        0.0887
      4 N          63.3719   87.0169   12.7462 N.ar    1  UNL1       -0.2098
      5 C          62.9579   88.3670   12.2406 C.ar    1  UNL1        0.2539
      6 N          61.8191   88.4883   11.2718 N.ar    1  UNL1       -0.1948
      7 N          63.6827   89.5960   12.7037 N.ar    1  UNL1       -0.2008
      8 N          64.3808   89.7641   14.0207 N.ar    1  UNL1       -0.1673
      9 C          64.9662   91.1445   14.0621 C.ar    1  UNL1        0.0806
     10 C          65.7503   91.7360   15.1958 C.3     1  UNL1        0.0540
     11 C          64.6299   91.8295   12.7707 C.ar    1  UNL1        0.0313
     12 C          63.8366   90.8725   11.9312 C.ar    1  UNL1        0.0651
     13 C          63.2928   91.1443   10.5599 C.3     1  UNL1        0.0523
     14 C          63.0610   84.4378   12.7886 C.ar    1  UNL1        0.0370
     15 C          63.8256   83.5050   11.8967 C.ar    1  UNL1        0.0046
     16 C          64.2395   82.1549   12.4023 C.ar    1  UNL1        0.0207
     17 C          63.8890   81.7374   13.7997 C.ar    1  UNL1        0.0989
     18 N          63.1244   82.6701   14.6916 N.ar    1  UNL1       -0.2423
     19 C          62.7105   84.0203   14.1860 C.ar    1  UNL1        0.1003
     20 C          58.9236   86.8873    7.5072 C.3     1  UNL1        0.0950
     21 C          60.0624   86.7660    8.4760 C.2     1  UNL1        0.2277
     22 O          61.3082   86.0300    8.0806 O.2     1  UNL1       -0.2747
     23 N          59.9555   87.3808    9.8400 N.am    1  UNL1       -0.2692
     24 H          59.1378   87.8638   10.0995 H       1  UNL1        0.1563
@<TRIPOS>BOND
     1    20    21    1
     2    21    22    2
     3    21    23   am
     4    23     1    1
     5     1     2   ar
     6     2     3   ar
     7     3    14    1
     8    14    15   ar
     9    15    16   ar
    10    16    17   ar
    11    17    18   ar
    12    18    19   ar
    13     3     4   ar
    14     4     5   ar
    15     5     7    1
    16     7     8   ar
    17     8     9   ar
    18     9    10    1
    19     9    11   ar
    20    11    12   ar
    21    12    13    1
    22     5     6   ar
    23     6     1   ar
    24    19    14   ar
    25    12     7   ar
    26    23    24    1
@<TRIPOS>MOLECULE
*****
 24 26 0 0 0
SMALL
GASTEIGER

@<TRIPOS>ATOM
      1 C          61.1888   87.4713   10.9310 C.ar    1  UNL1        0.1388
      2 C          61.9588   88.6765   11.3835 C.ar    1  UNL1        0.0538
      3 C          63.0630   88.5274   12.3877 C.ar    1  UNL1        0.0887
      4 N          63.3973   87.1732   12.9394 N.ar    1  UNL1       -0.2098
      5 C          62.6273   85.9681   12.4869 C.ar    1  UNL1        0.2539
      6 N          61.5231   86.1172   11.4827 N.ar    1  UNL1       -0.1948
      7 N          62.9616   84.6138   13.0386 N.ar    1  UNL1       -0.2008
      8 N          62.6140   83.2961   12.4118 N.ar    1  UNL1       -0.1673
      9 C          63.1397   82.2074   13.2997 C.ar    1  UNL1        0.0806
     10 C          63.0148   80.7328   13.0551 C.3     1  UNL1        0.0540
     11 C          63.8122   82.8523   14.4753 C.ar    1  UNL1        0.0313
     12 C          63.7022   84.3395   14.3139 C.ar    1  UNL1        0.0651
     13 C          64.2385   85.3713   15.2614 C.3     1  UNL1        0.0523
     14 C          63.8330   89.7326   12.8402 C.ar    1  UNL1        0.0370
     15 C          64.6046   89.6904   14.1258 C.ar    1  UNL1        0.0046
     16 C          65.3746   90.8955   14.5783 C.ar    1  UNL1        0.0207
     17 C          65.3729   92.1430   13.7453 C.ar    1  UNL1        0.0989
     18 N          64.6012   92.1852   12.4597 N.ar    1  UNL1       -0.2423
     19 C          63.8312   90.9800   12.0072 C.ar    1  UNL1        0.1003
     20 C          59.0672   87.0634    7.6020 C.3     1  UNL1        0.0950
     21 C          60.1714   86.9144    8.6062 C.2     1  UNL1        0.2277
     22 O          61.3625   86.0592    8.2898 O.2     1  UNL1       -0.2747
     23 N          60.0846   87.6204    9.9268 N.am    1  UNL1       -0.2692
     24 H          59.3028   88.1816   10.1345 H       1  UNL1        0.1563
@<TRIPOS>BOND
     1    20    21    1
     2    21    22    2
     3    21    23   am
     4    23     1    1
     5     1     2   ar
     6     2     3   ar
     7     3    14    1
     8    14    15   ar
     9    15    16   ar
    10    16    17   ar
    11    17    18   ar
    12    18    19   ar
    13     3     4   ar
    14     4     5   ar
    15     5     7    1
    16     7     8   ar
    17     8     9   ar
    18     9    10    1
    19     9    11   ar
    20    11    12   ar
    21    12    13    1
    22     5     6   ar
    23     6     1   ar
    24    19    14   ar
    25    12     7   ar
    26    23    24    1
@<TRIPOS>MOLECULE
*****
 24 26 0 0 0
SMALL
GASTEIGER

@<TRIPOS>ATOM
      1 C          63.2031   85.9152   12.7595 C.ar    1  UNL1        0.1388
      2 C          62.3091   86.1103   11.5710 C.ar    1  UNL1        0.0538
      3 C          62.0083   87.4947   11.0779 C.ar    1  UNL1        0.0887
      4 N          62.6015   88.6839   11.7734 N.ar    1  UNL1       -0.2098
      5 C          63.4956   88.4888   12.9618 C.ar    1  UNL1        0.2539
      6 N          63.7964   87.1045   13.4549 N.ar    1  UNL1       -0.1948
      7 N          64.0889   89.6781   13.6574 N.ar    1  UNL1       -0.2008
      8 N          64.9314   90.7428   13.0196 N.ar    1  UNL1       -0.1673
      9 C          65.3071   91.7342   14.0807 C.ar    1  UNL1        0.0806
     10 C          66.1458   92.9620   13.8830 C.3     1  UNL1        0.0540
     11 C          64.6968   91.2822   15.3743 C.ar    1  UNL1        0.0313
     12 C          63.9439   90.0115   15.1126 C.ar    1  UNL1        0.0651
     13 C          63.1802   89.2142   16.1280 C.3     1  UNL1        0.0523
     14 C          61.1142   87.6897    9.8894 C.ar    1  UNL1        0.0370
     15 C          60.5487   86.4994    9.1729 C.ar    1  UNL1        0.0046
     16 C          59.6546   86.6944    7.9844 C.ar    1  UNL1        0.0207
     17 C          59.3260   88.0797    7.5123 C.ar    1  UNL1        0.0989
     18 N          59.8915   89.2701    8.2288 N.ar    1  UNL1       -0.2423
     19 C          60.7856   89.0750    9.4173 C.ar    1  UNL1        0.1003
     20 C          63.0632   82.5933   14.9262 C.3     1  UNL1        0.0950
     21 C          62.7624   83.9776   14.4332 C.2     1  UNL1        0.2277
     22 O          61.7200   84.8087   15.1208 O.2     1  UNL1       -0.2747
     23 N          63.5039   84.5309   13.2525 N.am    1  UNL1       -0.2692
     24 H          64.1881   83.9854   12.8013 H       1  UNL1        0.1563
@<TRIPOS>BOND
     1    20    21    1
     2    21    22    2
     3    21    23   am
     4    23     1    1
     5     1     2   ar
     6     2     3   ar
     7     3    14    1
     8    14    15   ar
     9    15    16   ar
    10    16    17   ar
    11    17    18   ar
    12    18    19   ar
    13     3     4   ar
    14     4     5   ar
    15     5     7    1
    16     7     8   ar
    17     8     9   ar
    18     9    10    1
    19     9    11   ar
    20    11    12   ar
    21    12    13    1
    22     5     6   ar
    23     6     1   ar
    24    19    14   ar
    25    12     7   ar
    26    23    24    1
@<TRIPOS>MOLECULE
*****
 24 26 0 0 0
SMALL
GASTEIGER

@<TRIPOS>ATOM
      1 C          61.1013   87.2836   10.8365 C.ar    1  UNL1        0.1388
      2 C          61.4645   85.8960   11.2755 C.ar    1  UNL1        0.0538
      3 C          62.5815   85.6873   12.2547 C.ar    1  UNL1        0.0887
      4 N          63.3353   86.8662   12.7949 N.ar    1  UNL1       -0.2098
      5 C          62.9721   88.2538   12.3559 C.ar    1  UNL1        0.2539
      6 N          61.8552   88.4625   11.3768 N.ar    1  UNL1       -0.1948
      7 N          63.7260   89.4328   12.8962 N.ar    1  UNL1       -0.2008
      8 N          64.1913   90.6194   12.1053 N.ar    1  UNL1       -0.1673
      9 C          64.8997   91.5521   13.0424 C.ar    1  UNL1        0.0806
     10 C          65.5257   92.8646   12.6741 C.3     1  UNL1        0.0540
     11 C          64.8722   90.9419   14.4124 C.ar    1  UNL1        0.0313
     12 C          64.1468   89.6321   14.3220 C.ar    1  UNL1        0.0651
     13 C          63.8878   88.6875   15.4581 C.3     1  UNL1        0.0523
     14 C          62.9446   84.2997   12.6936 C.ar    1  UNL1        0.0370
     15 C          62.8992   83.1665   11.7118 C.ar    1  UNL1        0.0046
     16 C          63.2623   81.7789   12.1507 C.ar    1  UNL1        0.0207
     17 C          63.6709   81.5244   13.5714 C.ar    1  UNL1        0.0989
     18 N          63.7164   82.6576   14.5532 N.ar    1  UNL1       -0.2423
     19 C          63.3532   84.0452   14.1143 C.ar    1  UNL1        0.1003
     20 C          58.9499   87.0988    7.5068 C.3     1  UNL1        0.0950
     21 C          60.0669   86.8902    8.4860 C.2     1  UNL1        0.2277
     22 O          61.2664   86.0794    8.0937 O.2     1  UNL1       -0.2747
     23 N          59.9843   87.4922    9.8573 N.am    1  UNL1       -0.2692
     24 H          59.1970   88.0243   10.1148 H       1  UNL1        0.1563
@<TRIPOS>BOND
     1    20    21    1
     2    21    22    2
     3    21    23   am
     4    23     1    1
     5     1     2   ar
     6     2     3   ar
     7     3    14    1
     8    14    15   ar
     9    15    16   ar
    10    16    17   ar
    11    17    18   ar
    12    18    19   ar
    13     3     4   ar
    14     4     5   ar
    15     5     7    1
    16     7     8   ar
    17     8     9   ar
    18     9    10    1
    19     9    11   ar
    20    11    12   ar
    21    12    13    1
    22     5     6   ar
    23     6     1   ar
    24    19    14   ar
    25    12     7   ar
    26    23    24    1
@<TRIPOS>MOLECULE
*****
 24 26 0 0 0
SMALL
GASTEIGER

@<TRIPOS>ATOM
      1 C          63.7286   88.0597   13.4542 C.ar    1  UNL1        0.1388
      2 C          63.9004   86.5997   13.7523 C.ar    1  UNL1        0.0538
      3 C          63.2255   85.5739   12.8908 C.ar    1  UNL1        0.0887
      4 N          62.3789   86.0080   11.7312 N.ar    1  UNL1       -0.2098
      5 C          62.2071   87.4680   11.4332 C.ar    1  UNL1        0.2539
      6 N          62.8819   88.4938   12.2947 N.ar    1  UNL1       -0.1948
      7 N          61.3604   87.9022   10.2735 N.ar    1  UNL1       -0.2008
      8 N          60.4629   87.0195    9.4578 N.ar    1  UNL1       -0.1673
      9 C          59.8104   87.8670    8.4062 C.ar    1  UNL1        0.0806
     10 C          58.8349   87.3916    7.3707 C.3     1  UNL1        0.0540
     11 C          60.3047   89.2736    8.5720 C.ar    1  UNL1        0.0313
     12 C          61.2626   89.2953    9.7260 C.ar    1  UNL1        0.0651
     13 C          61.9943   90.4988   10.2420 C.3     1  UNL1        0.0523
     14 C          63.3973   84.1138   13.1889 C.ar    1  UNL1        0.0370
     15 C          63.2478   83.1017   12.0920 C.ar    1  UNL1        0.0046
     16 C          63.4196   81.6417   12.3900 C.ar    1  UNL1        0.0207
     17 C          63.7410   81.1938   13.7851 C.ar    1  UNL1        0.0989
     18 N          63.8905   82.2059   14.8820 N.ar    1  UNL1       -0.2423
     19 C          63.7187   83.6659   14.5839 C.ar    1  UNL1        0.1003
     20 C          64.2725   90.9235   16.1473 C.3     1  UNL1        0.0950
     21 C          63.5976   89.8977   15.2858 C.2     1  UNL1        0.2277
     22 O          62.1168   89.6840   15.3944 O.2     1  UNL1       -0.2747
     23 N          64.4035   89.0855   14.3158 N.am    1  UNL1       -0.2692
     24 H          65.3753   89.2258   14.2445 H       1  UNL1        0.1563
@<TRIPOS>BOND
     1    20    21    1
     2    21    22    2
     3    21    23   am
     4    23     1    1
     5     1     2   ar
     6     2     3   ar
     7     3    14    1
     8    14    15   ar
     9    15    16   ar
    10    16    17   ar
    11    17    18   ar
    12    18    19   ar
    13     3     4   ar
    14     4     5   ar
    15     5     7    1
    16     7     8   ar
    17     8     9   ar
    18     9    10    1
    19     9    11   ar
    20    11    12   ar
    21    12    13    1
    22     5     6   ar
    23     6     1   ar
    24    19    14   ar
    25    12     7   ar
    26    23    24    1
@<TRIPOS>MOLECULE
*****
 24 26 0 0 0
SMALL
GASTEIGER

@<TRIPOS>ATOM
      1 C          62.8644   85.9219   12.6275 C.ar    1  UNL1        0.1388
      2 C          61.9841   85.9642   11.4138 C.ar    1  UNL1        0.0538
      3 C          61.7661   87.2600   10.6902 C.ar    1  UNL1        0.0887
      4 N          62.4283   88.5134   11.1803 N.ar    1  UNL1       -0.2098
      5 C          63.3086   88.4711   12.3941 C.ar    1  UNL1        0.2539
      6 N          63.5267   87.1753   13.1177 N.ar    1  UNL1       -0.1948
      7 N          63.9710   89.7245   12.8843 N.ar    1  UNL1       -0.2008
      8 N          64.6500   89.9024   14.2100 N.ar    1  UNL1       -0.1673
      9 C          65.1692   91.3079   14.2799 C.ar    1  UNL1        0.0806
     10 C          65.9155   91.9159   15.4303 C.3     1  UNL1        0.0540
     11 C          64.8111   91.9987   12.9975 C.ar    1  UNL1        0.0313
     12 C          64.0706   91.0201   12.1350 C.ar    1  UNL1        0.0651
     13 C          63.5253   91.2898   10.7639 C.3     1  UNL1        0.0523
     14 C          60.8857   87.3022    9.4764 C.ar    1  UNL1        0.0370
     15 C          60.3405   88.6125    8.9906 C.ar    1  UNL1        0.0046
     16 C          59.4601   88.6548    7.7769 C.ar    1  UNL1        0.0207
     17 C          59.1250   87.3868    7.0488 C.ar    1  UNL1        0.0989
     18 N          59.6702   86.0766    7.5346 N.ar    1  UNL1       -0.2423
     19 C          60.5506   86.0343    8.7484 C.ar    1  UNL1        0.1003
     20 C          63.9775   82.1874   13.3784 C.3     1  UNL1        0.0950
     21 C          63.7595   83.4831   12.6548 C.2     1  UNL1        0.2277
     22 O          64.2185   83.6356   11.2349 O.2     1  UNL1       -0.2747
     23 N          63.0824   84.6262   13.3511 N.am    1  UNL1       -0.2692
     24 H          62.7812   84.5261   14.2830 H       1  UNL1        0.1563
@<TRIPOS>BOND
     1    20    21    1
     2    21    22    2
     3    21    23   am
     4    23     1    1
     5     1     2   ar
     6     2     3   ar
     7     3    14    1
     8    14    15   ar
     9    15    16   ar
    10    16    17   ar
    11    17    18   ar
    12    18    19   ar
    13     3     4   ar
    14     4     5   ar
    15     5     7    1
    16     7     8   ar
    17     8     9   ar
    18     9    10    1
    19     9    11   ar
    20    11    12   ar
    21    12    13    1
    22     5     6   ar
    23     6     1   ar
    24    19    14   ar
    25    12     7   ar
    26    23    24    1
@<TRIPOS>MOLECULE
*****
 24 26 0 0 0
SMALL
GASTEIGER

@<TRIPOS>ATOM
      1 C          65.5131   93.8067   10.5646 C.ar    1  UNL1        0.1388
      2 C          66.2929   93.7428   11.8443 C.ar    1  UNL1        0.0538
      3 C          66.0319   92.6404   12.8275 C.ar    1  UNL1        0.0887
      4 N          64.9910   91.6019   12.5309 N.ar    1  UNL1       -0.2098
      5 C          64.2112   91.6658   11.2512 C.ar    1  UNL1        0.2539
      6 N          64.4722   92.7682   10.2680 N.ar    1  UNL1       -0.1948
      7 N          63.1702   90.6272   10.9545 N.ar    1  UNL1       -0.2008
      8 N          62.2153   90.6413    9.7978 N.ar    1  UNL1       -0.1673
      9 C          61.3564   89.4151    9.8908 C.ar    1  UNL1        0.0806
     10 C          60.2650   89.0286    8.9371 C.3     1  UNL1        0.0540
     11 C          61.7804   88.6432   11.1052 C.ar    1  UNL1        0.0313
     12 C          62.9014   89.3924   11.7625 C.ar    1  UNL1        0.0651
     13 C          63.6263   88.9792   13.0090 C.3     1  UNL1        0.0523
     14 C          66.8118   92.5766   14.1073 C.ar    1  UNL1        0.0370
     15 C          68.2941   92.3501   14.0717 C.ar    1  UNL1        0.0046
     16 C          69.0740   92.2863   15.3513 C.ar    1  UNL1        0.0207
     17 C          68.3715   92.4489   16.6667 C.ar    1  UNL1        0.0989
     18 N          66.8892   92.6753   16.7023 N.ar    1  UNL1       -0.2423
     19 C          66.1093   92.7391   15.4226 C.ar    1  UNL1        0.1003
     20 C          67.4332   96.2791    8.1253 C.3     1  UNL1        0.0950
     21 C          67.1722   95.1767    9.1084 C.2     1  UNL1        0.2277
     22 O          68.3092   94.3418    9.6185 O.2     1  UNL1       -0.2747
     23 N          65.7741   94.9091    9.5815 N.am    1  UNL1       -0.2692
     24 H          65.0278   95.4571    9.2467 H       1  UNL1        0.1563
@<TRIPOS>BOND
     1    20    21    1
     2    21    22    2
     3    21    23   am
     4    23     1    1
     5     1     2   ar
     6     2     3   ar
     7     3    14    1
     8    14    15   ar
     9    15    16   ar
    10    16    17   ar
    11    17    18   ar
    12    18    19   ar
    13     3     4   ar
    14     4     5   ar
    15     5     7    1
    16     7     8   ar
    17     8     9   ar
    18     9    10    1
    19     9    11   ar
    20    11    12   ar
    21    12    13    1
    22     5     6   ar
    23     6     1   ar
    24    19    14   ar
    25    12     7   ar
    26    23    24    1
