@<TRIPOS>MOLECULE
*****
 32 36 0 0 0
SMALL
GASTEIGER

@<TRIPOS>ATOM
      1 C          66.2401   93.3264   11.5268 C.ar    1  UNL1        0.1663
      2 N          65.2102   92.2379   11.5945 N.ar    1  UNL1       -0.2222
      3 C          65.0078   91.8805   13.0371 C.ar    1  UNL1        0.1305
      4 C          64.1164   90.8772   13.7070 C.ar    1  UNL1        0.0765
      5 C          64.1299   90.7414   15.2009 C.ar    1  UNL1        0.0664
      6 BR         63.2385   89.7380   15.8708 Br      1  UNL1       -0.0461
      7 C          65.0345   91.6090   16.0247 C.ar    1  UNL1        0.0816
      8 N          65.9258   92.6124   15.3548 N.ar    1  UNL1       -0.3357
      9 C          65.9125   92.7481   13.8610 C.ar    1  UNL1        0.1613
     10 N          66.6741   93.6417   12.9276 N.ar    1  UNL1       -0.2081
     11 H          66.5196   93.1818   15.8956 H       1  UNL1        0.1675
     12 C          68.3212   92.0192    9.3797 C.3     1  UNL1        0.0541
     13 C          67.7036   93.3832    9.2907 C.ar    1  UNL1        0.0830
     14 N          67.9341   94.3858    8.1991 N.ar    1  UNL1       -0.1738
     15 N          67.1200   95.6065    8.5113 N.ar    1  UNL1       -0.2531
     16 C          67.0516   96.8559    7.6843 C.3     1  UNL1        0.1533
     17 C          66.3863   95.3581    9.7959 C.ar    1  UNL1        0.0601
     18 C          65.4554   96.3157   10.4789 C.3     1  UNL1        0.0518
     19 C          66.7470   93.9841   10.2776 C.ar    1  UNL1        0.0642
     20 N          63.2117   90.0095   12.8832 N.pl3   1  UNL1       -0.3030
     21 C          62.0027   90.6017   12.2217 C.3     1  UNL1        0.1082
     22 C          61.0980   89.7339   11.3979 C.3     1  UNL1        0.0941
     23 N          61.4024   88.2741   11.2356 N.3     1  UNL1       -0.2659
     24 C          62.6114   87.6820   11.8971 C.3     1  UNL1        0.0941
     25 C          63.5160   88.5497   12.7209 C.3     1  UNL1        0.1082
     26 C          60.4977   87.4064   10.4118 C.3     1  UNL1        0.1008
     27 C          61.0643   86.5767    9.2979 C.ar    1  UNL1        0.0130
     28 C          62.4898   86.1140    9.3577 C.ar    1  UNL1        0.0002
     29 C          63.0564   85.2843    8.2439 C.ar    1  UNL1        0.0204
     30 C          62.1973   84.9174    7.0702 C.ar    1  UNL1        0.0989
     31 N          60.7718   85.3802    7.0105 N.ar    1  UNL1       -0.2426
     32 C          60.2052   86.2098    8.1243 C.ar    1  UNL1        0.0959
@<TRIPOS>BOND
     1    12    13    1
     2    13    14   ar
     3    14    15   ar
     4    15    16    1
     5    15    17   ar
     6    17    18    1
     7    17    19   ar
     8    19     1    1
     9     1     2   ar
    10     2     3   ar
    11     3     4   ar
    12     4    20    1
    13    20    21    1
    14    21    22    1
    15    22    23    1
    16    23    26    1
    17    26    27    1
    18    27    28   ar
    19    28    29   ar
    20    29    30   ar
    21    30    31   ar
    22    31    32   ar
    23    23    24    1
    24    24    25    1
    25     4     5   ar
    26     5     6    1
    27     5     7   ar
    28     7     8   ar
    29     8     9   ar
    30     9    10   ar
    31    19    13   ar
    32    10     1   ar
    33     9     3    1
    34    25    20    1
    35    32    27   ar
    36     8    11    1
@<TRIPOS>MOLECULE
*****
 32 36 0 0 0
SMALL
GASTEIGER

@<TRIPOS>ATOM
      1 C          66.3149   93.4626   11.8544 C.ar    1  UNL1        0.1663
      2 N          65.4750   92.2254   11.9722 N.ar    1  UNL1       -0.2222
      3 C          65.1816   92.0011   13.4260 C.ar    1  UNL1        0.1305
      4 C          64.3998   90.9384   14.1398 C.ar    1  UNL1        0.0765
      5 C          64.2767   90.9744   15.6344 C.ar    1  UNL1        0.0664
      6 BR         63.4949   89.9116   16.3483 Br      1  UNL1       -0.0461
      7 C          64.9352   92.0729   16.4150 C.ar    1  UNL1        0.0816
      8 N          65.7169   93.1356   15.7012 N.ar    1  UNL1       -0.3357
      9 C          65.8401   93.0997   14.2067 C.ar    1  UNL1        0.1613
     10 N          66.5406   94.0029   13.2353 N.ar    1  UNL1       -0.2081
     11 H          66.1491   93.8566   16.2136 H       1  UNL1        0.1675
     12 C          68.1915   91.9422    9.6598 C.3     1  UNL1        0.0541
     13 C          67.7000   93.3565    9.5707 C.ar    1  UNL1        0.0830
     14 N          67.9847   94.3203    8.4571 N.ar    1  UNL1       -0.1738
     15 N          67.2982   95.6149    8.7776 N.ar    1  UNL1       -0.2531
     16 C          67.3173   96.8553    7.9346 C.3     1  UNL1        0.1533
     17 C          66.5890   95.4511   10.0893 C.ar    1  UNL1        0.0601
     18 C          65.7746   96.4992   10.7881 C.3     1  UNL1        0.0518
     19 C          66.8374   94.0554   10.5794 C.ar    1  UNL1        0.0642
     20 N          63.7413   89.8398   13.3592 N.pl3   1  UNL1       -0.3030
     21 C          64.0850   88.4077   13.6436 C.3     1  UNL1        0.1082
     22 C          63.4264   87.3091   12.8630 C.3     1  UNL1        0.0941
     23 N          62.4241   87.6427   11.7980 N.3     1  UNL1       -0.2659
     24 C          62.0804   89.0748   11.5136 C.3     1  UNL1        0.0941
     25 C          62.7390   90.1733   12.2942 C.3     1  UNL1        0.1082
     26 C          61.7655   86.5441   11.0174 C.3     1  UNL1        0.1008
     27 C          62.4476   85.2163   10.8693 C.ar    1  UNL1        0.0130
     28 C          63.1748   84.8842    9.6001 C.ar    1  UNL1        0.0002
     29 C          63.8569   83.5565    9.4519 C.ar    1  UNL1        0.0204
     30 C          63.8117   82.5609   10.5730 C.ar    1  UNL1        0.0989
     31 N          63.0845   82.8931   11.8422 N.ar    1  UNL1       -0.2426
     32 C          62.4024   84.2208   11.9903 C.ar    1  UNL1        0.0959
@<TRIPOS>BOND
     1    12    13    1
     2    13    14   ar
     3    14    15   ar
     4    15    16    1
     5    15    17   ar
     6    17    18    1
     7    17    19   ar
     8    19     1    1
     9     1     2   ar
    10     2     3   ar
    11     3     4   ar
    12     4    20    1
    13    20    21    1
    14    21    22    1
    15    22    23    1
    16    23    26    1
    17    26    27    1
    18    27    28   ar
    19    28    29   ar
    20    29    30   ar
    21    30    31   ar
    22    31    32   ar
    23    23    24    1
    24    24    25    1
    25     4     5   ar
    26     5     6    1
    27     5     7   ar
    28     7     8   ar
    29     8     9   ar
    30     9    10   ar
    31    19    13   ar
    32    10     1   ar
    33     9     3    1
    34    25    20    1
    35    32    27   ar
    36     8    11    1
@<TRIPOS>MOLECULE
*****
 32 36 0 0 0
SMALL
GASTEIGER

@<TRIPOS>ATOM
      1 C          63.1024   90.4843   11.9058 C.ar    1  UNL1        0.1663
      2 N          63.0722   89.0404   11.5004 N.ar    1  UNL1       -0.2222
      3 C          61.9853   88.8678   10.4812 C.ar    1  UNL1        0.1305
      4 C          61.4969   87.6657    9.7286 C.ar    1  UNL1        0.0765
      5 C          60.3669   87.8008    8.7514 C.ar    1  UNL1        0.0664
      6 BR         59.8785   86.5986    7.9988 Br      1  UNL1       -0.0461
      7 C          59.7254   89.1378    8.5269 C.ar    1  UNL1        0.0816
      8 N          60.2137   90.3399    9.2795 N.ar    1  UNL1       -0.3357
      9 C          61.3437   90.2049   10.2566 C.ar    1  UNL1        0.1613
     10 N          62.0341   91.2040   11.1371 N.ar    1  UNL1       -0.2081
     11 H          59.7926   91.2175    9.1321 H       1  UNL1        0.1675
     12 C          63.2316   89.7929   15.0924 C.3     1  UNL1        0.0541
     13 C          64.0961   90.7825   14.3692 C.ar    1  UNL1        0.0830
     14 N          65.1718   91.6282   14.9838 N.ar    1  UNL1       -0.1738
     15 N          65.7774   92.4687   13.8989 N.ar    1  UNL1       -0.2531
     16 C          66.8891   93.4610   14.0692 C.3     1  UNL1        0.1533
     17 C          65.0758   92.1424   12.6138 C.ar    1  UNL1        0.0601
     18 C          65.3629   92.7514   11.2733 C.3     1  UNL1        0.0518
     19 C          64.0368   91.1004   12.9045 C.ar    1  UNL1        0.0642
     20 N          62.1385   86.3285    9.9532 N.pl3   1  UNL1       -0.3030
     21 C          62.9210   85.6776    8.8514 C.3     1  UNL1        0.1082
     22 C          63.5625   84.3404    9.0760 C.3     1  UNL1        0.0941
     23 N          63.4215   83.6542   10.4023 N.3     1  UNL1       -0.2659
     24 C          62.6390   84.3051   11.5041 C.3     1  UNL1        0.0941
     25 C          61.9975   85.6423   11.2795 C.3     1  UNL1        0.1082
     26 C          64.0630   82.3170   10.6269 C.3     1  UNL1        0.1008
     27 C          63.6304   81.4619   11.7810 C.ar    1  UNL1        0.0130
     28 C          62.7196   80.2930   11.5484 C.ar    1  UNL1        0.0002
     29 C          62.2869   79.4380   12.7024 C.ar    1  UNL1        0.0204
     30 C          62.7651   79.7519   14.0890 C.ar    1  UNL1        0.0989
     31 N          63.6759   80.9208   14.3216 N.ar    1  UNL1       -0.2426
     32 C          64.1085   81.7758   13.1677 C.ar    1  UNL1        0.0959
@<TRIPOS>BOND
     1    12    13    1
     2    13    14   ar
     3    14    15   ar
     4    15    16    1
     5    15    17   ar
     6    17    18    1
     7    17    19   ar
     8    19     1    1
     9     1     2   ar
    10     2     3   ar
    11     3     4   ar
    12     4    20    1
    13    20    21    1
    14    21    22    1
    15    22    23    1
    16    23    26    1
    17    26    27    1
    18    27    28   ar
    19    28    29   ar
    20    29    30   ar
    21    30    31   ar
    22    31    32   ar
    23    23    24    1
    24    24    25    1
    25     4     5   ar
    26     5     6    1
    27     5     7   ar
    28     7     8   ar
    29     8     9   ar
    30     9    10   ar
    31    19    13   ar
    32    10     1   ar
    33     9     3    1
    34    25    20    1
    35    32    27   ar
    36     8    11    1
@<TRIPOS>MOLECULE
*****
 32 36 0 0 0
SMALL
GASTEIGER

@<TRIPOS>ATOM
      1 C          63.0943   90.6103   11.4484 C.ar    1  UNL1        0.1663
      2 N          63.0714   89.1436   11.1351 N.ar    1  UNL1       -0.2222
      3 C          61.9458   88.8921   10.1761 C.ar    1  UNL1        0.1305
      4 C          61.4466   87.6384    9.5210 C.ar    1  UNL1        0.0765
      5 C          60.2745   87.6961    8.5867 C.ar    1  UNL1        0.0664
      6 BR         59.7751   86.4423    7.9316 Br      1  UNL1       -0.0461
      7 C          59.6017   89.0072    8.3074 C.ar    1  UNL1        0.0816
      8 N          60.1010   90.2609    8.9624 N.ar    1  UNL1       -0.3357
      9 C          61.2730   90.2033    9.8967 C.ar    1  UNL1        0.1613
     10 N          61.9829   91.2653   10.6831 N.ar    1  UNL1       -0.2081
     11 H          59.6594   91.1215    8.7791 H       1  UNL1        0.1675
     12 C          65.2529   92.9020   10.5894 C.3     1  UNL1        0.0541
     13 C          65.0514   92.3542   11.9712 C.ar    1  UNL1        0.0830
     14 N          65.8068   92.7637   13.2007 N.ar    1  UNL1       -0.1738
     15 N          65.2815   91.9634   14.3555 N.ar    1  UNL1       -0.2531
     16 C          65.7533   92.0517   15.7766 C.3     1  UNL1        0.1533
     17 C          64.2014   91.0593   13.8396 C.ar    1  UNL1        0.0601
     18 C          63.4035   90.0848   14.6544 C.3     1  UNL1        0.0518
     19 C          64.0592   91.3009   12.3661 C.ar    1  UNL1        0.0642
     20 N          62.1193   86.3271    9.8003 N.pl3   1  UNL1       -0.3030
     21 C          62.0261   85.7120   11.1652 C.3     1  UNL1        0.1082
     22 C          62.6988   84.4007   11.4444 C.3     1  UNL1        0.0941
     23 N          63.4647   83.7046   10.3587 N.3     1  UNL1       -0.2659
     24 C          63.5579   84.3197    8.9938 C.3     1  UNL1        0.0941
     25 C          62.8852   85.6309    8.7146 C.3     1  UNL1        0.1082
     26 C          64.1375   82.3933   10.6379 C.3     1  UNL1        0.1008
     27 C          63.6831   81.5476   11.7905 C.ar    1  UNL1        0.0130
     28 C          62.7500   80.3971   11.5546 C.ar    1  UNL1        0.0002
     29 C          62.2956   79.5515   12.7071 C.ar    1  UNL1        0.0204
     30 C          62.7743   79.8563   14.0956 C.ar    1  UNL1        0.0989
     31 N          63.7074   81.0068   14.3315 N.ar    1  UNL1       -0.2426
     32 C          64.1618   81.8525   13.1790 C.ar    1  UNL1        0.0959
@<TRIPOS>BOND
     1    12    13    1
     2    13    14   ar
     3    14    15   ar
     4    15    16    1
     5    15    17   ar
     6    17    18    1
     7    17    19   ar
     8    19     1    1
     9     1     2   ar
    10     2     3   ar
    11     3     4   ar
    12     4    20    1
    13    20    21    1
    14    21    22    1
    15    22    23    1
    16    23    26    1
    17    26    27    1
    18    27    28   ar
    19    28    29   ar
    20    29    30   ar
    21    30    31   ar
    22    31    32   ar
    23    23    24    1
    24    24    25    1
    25     4     5   ar
    26     5     6    1
    27     5     7   ar
    28     7     8   ar
    29     8     9   ar
    30     9    10   ar
    31    19    13   ar
    32    10     1   ar
    33     9     3    1
    34    25    20    1
    35    32    27   ar
    36     8    11    1
@<TRIPOS>MOLECULE
*****
 32 36 0 0 0
SMALL
GASTEIGER

@<TRIPOS>ATOM
      1 C          66.0427   93.5746   12.3214 C.ar    1  UNL1        0.1663
      2 N          65.1817   92.3464   12.3177 N.ar    1  UNL1       -0.2222
      3 C          64.9065   91.9690   13.7431 C.ar    1  UNL1        0.1305
      4 C          64.1160   90.8478   14.3498 C.ar    1  UNL1        0.0765
      5 C          64.0164   90.7217   15.8412 C.ar    1  UNL1        0.0664
      6 BR         63.2259   89.6005   16.4479 Br      1  UNL1       -0.0461
      7 C          64.7072   91.7167   16.7258 C.ar    1  UNL1        0.0816
      8 N          65.4977   92.8378   16.1191 N.ar    1  UNL1       -0.3357
      9 C          65.5974   92.9640   14.6278 C.ar    1  UNL1        0.1613
     10 N          66.2996   93.9564   13.7491 N.ar    1  UNL1       -0.2081
     11 H          65.9511   93.4909   16.6998 H       1  UNL1        0.1675
     12 C          65.8768   96.7897   11.7871 C.3     1  UNL1        0.0541
     13 C          66.4804   95.7726   10.8646 C.ar    1  UNL1        0.0830
     14 N          67.1136   96.0548    9.5344 N.ar    1  UNL1       -0.1738
     15 N          67.5814   94.7513    8.9578 N.ar    1  UNL1       -0.2531
     16 C          68.2720   94.5679    7.6391 C.3     1  UNL1        0.1533
     17 C          67.2371   93.6636    9.9317 C.ar    1  UNL1        0.0601
     18 C          67.5231   92.2014    9.7577 C.3     1  UNL1        0.0518
     19 C          66.5567   94.2948   11.1101 C.ar    1  UNL1        0.0642
     20 N          63.4251   89.8527   13.4651 N.pl3   1  UNL1       -0.3030
     21 C          62.2465   90.2749   12.6389 C.3     1  UNL1        0.1082
     22 C          61.5557   89.2798   11.7543 C.3     1  UNL1        0.0941
     23 N          62.0435   87.8625   11.6960 N.3     1  UNL1       -0.2659
     24 C          63.2220   87.4403   12.5222 C.3     1  UNL1        0.0941
     25 C          63.9129   88.4354   13.4068 C.3     1  UNL1        0.1082
     26 C          61.3526   86.8674   10.8114 C.3     1  UNL1        0.1008
     27 C          60.6208   87.3328    9.5875 C.ar    1  UNL1        0.0130
     28 C          59.9933   86.3321    8.6629 C.ar    1  UNL1        0.0002
     29 C          59.2615   86.7975    7.4391 C.ar    1  UNL1        0.0204
     30 C          59.1572   88.2636    7.1398 C.ar    1  UNL1        0.0989
     31 N          59.7847   89.2643    8.0644 N.ar    1  UNL1       -0.2426
     32 C          60.5165   88.7990    9.2883 C.ar    1  UNL1        0.0959
@<TRIPOS>BOND
     1    12    13    1
     2    13    14   ar
     3    14    15   ar
     4    15    16    1
     5    15    17   ar
     6    17    18    1
     7    17    19   ar
     8    19     1    1
     9     1     2   ar
    10     2     3   ar
    11     3     4   ar
    12     4    20    1
    13    20    21    1
    14    21    22    1
    15    22    23    1
    16    23    26    1
    17    26    27    1
    18    27    28   ar
    19    28    29   ar
    20    29    30   ar
    21    30    31   ar
    22    31    32   ar
    23    23    24    1
    24    24    25    1
    25     4     5   ar
    26     5     6    1
    27     5     7   ar
    28     7     8   ar
    29     8     9   ar
    30     9    10   ar
    31    19    13   ar
    32    10     1   ar
    33     9     3    1
    34    25    20    1
    35    32    27   ar
    36     8    11    1
@<TRIPOS>MOLECULE
*****
 32 36 0 0 0
SMALL
GASTEIGER

@<TRIPOS>ATOM
      1 C          63.1165   84.6351   12.5976 C.ar    1  UNL1        0.1663
      2 N          62.4628   85.6290   11.6839 N.ar    1  UNL1       -0.2222
      3 C          62.8413   87.0042   12.1480 C.ar    1  UNL1        0.1305
      4 C          62.4924   88.3689   11.6325 C.ar    1  UNL1        0.0765
      5 C          63.0313   89.5898   12.3176 C.ar    1  UNL1        0.0664
      6 BR         62.6823   90.9546   11.8021 Br      1  UNL1       -0.0461
      7 C          63.9189   89.4458   13.5181 C.ar    1  UNL1        0.0816
      8 N          64.2678   88.0811   14.0336 N.ar    1  UNL1       -0.3357
      9 C          63.7290   86.8603   13.3485 C.ar    1  UNL1        0.1613
     10 N          63.8991   85.3961   13.6264 N.ar    1  UNL1       -0.2081
     11 H          64.8504   87.9866   14.8215 H       1  UNL1        0.1675
     12 C          64.0536   82.8051   10.0634 C.3     1  UNL1        0.0541
     13 C          63.4376   82.3012   11.3348 C.ar    1  UNL1        0.0830
     14 N          63.1442   80.8676   11.6646 N.ar    1  UNL1       -0.1738
     15 N          62.5322   80.8227   13.0334 N.ar    1  UNL1       -0.2531
     16 C          62.0837   79.5887   13.7586 C.3     1  UNL1        0.1533
     17 C          62.4473   82.2286   13.5495 C.ar    1  UNL1        0.0601
     18 C          61.8990   82.6473   14.8814 C.3     1  UNL1        0.0518
     19 C          63.0069   83.1423   12.4997 C.ar    1  UNL1        0.0642
     20 N          61.6047   88.5129   10.4319 N.pl3   1  UNL1       -0.3030
     21 C          61.6188   87.4651    9.3588 C.3     1  UNL1        0.1082
     22 C          60.7311   87.6092    8.1582 C.3     1  UNL1        0.0941
     23 N          59.8294   88.8011    8.0310 N.3     1  UNL1       -0.2659
     24 C          59.8153   89.8489    9.1042 C.3     1  UNL1        0.0941
     25 C          60.7030   89.7048   10.3047 C.3     1  UNL1        0.1082
     26 C          58.9416   88.9451    6.8305 C.3     1  UNL1        0.1008
     27 C          59.1085   90.1184    5.9108 C.ar    1  UNL1        0.0130
     28 C          60.4730   90.4934    5.4134 C.ar    1  UNL1        0.0002
     29 C          60.6399   91.6666    4.4938 C.ar    1  UNL1        0.0204
     30 C          59.4421   92.4648    4.0715 C.ar    1  UNL1        0.0989
     31 N          58.0776   92.0898    4.5689 N.ar    1  UNL1       -0.2426
     32 C          57.9107   90.9166    5.4885 C.ar    1  UNL1        0.0959
@<TRIPOS>BOND
     1    12    13    1
     2    13    14   ar
     3    14    15   ar
     4    15    16    1
     5    15    17   ar
     6    17    18    1
     7    17    19   ar
     8    19     1    1
     9     1     2   ar
    10     2     3   ar
    11     3     4   ar
    12     4    20    1
    13    20    21    1
    14    21    22    1
    15    22    23    1
    16    23    26    1
    17    26    27    1
    18    27    28   ar
    19    28    29   ar
    20    29    30   ar
    21    30    31   ar
    22    31    32   ar
    23    23    24    1
    24    24    25    1
    25     4     5   ar
    26     5     6    1
    27     5     7   ar
    28     7     8   ar
    29     8     9   ar
    30     9    10   ar
    31    19    13   ar
    32    10     1   ar
    33     9     3    1
    34    25    20    1
    35    32    27   ar
    36     8    11    1
