@<TRIPOS>MOLECULE
*****
 32 36 0 0 0
SMALL
GASTEIGER

@<TRIPOS>ATOM
      1 N          65.2088   92.3387   12.0326 N.3     1  UNL1       -0.2679
      2 C          66.2818   92.7144   11.0540 C.3     1  UNL1        0.0978
      3 C          67.3263   91.7108   10.6643 C.3     1  UNL1        0.0224
      4 C          68.3993   92.0866    9.6857 C.3     1  UNL1        0.0065
      5 C          68.4277   93.4658    9.0969 C.3     1  UNL1        0.0277
      6 C          67.3832   94.4694    9.4866 C.ar    1  UNL1       -0.0073
      7 C          67.4116   95.8486    8.8977 C.ar    1  UNL1       -0.0015
      8 C          66.3671   96.8522    9.2874 C.ar    1  UNL1        0.0203
      9 C          65.2941   96.4765   10.2659 C.ar    1  UNL1        0.0985
     10 N          65.2657   95.0972   10.8548 N.ar    1  UNL1       -0.2471
     11 C          66.3102   94.0937   10.4651 C.ar    1  UNL1        0.0695
     12 C          65.5048   92.3289   13.5031 C.3     1  UNL1        0.0886
     13 C          63.0855   86.7659   16.7358 C.ar    1  UNL1       -0.0003
     14 C          63.8692   86.3326   15.5325 C.ar    1  UNL1       -0.0003
     15 C          64.5098   87.3585   14.6453 C.ar    1  UNL1       -0.0045
     16 C          64.3667   88.8178   14.9614 C.ar    1  UNL1       -0.0234
     17 C          63.5830   89.2512   16.1647 C.ar    1  UNL1       -0.0103
     18 C          62.9424   88.2252   17.0519 C.ar    1  UNL1       -0.0032
     19 C          63.4399   90.7105   16.4808 C.3     1  UNL1        0.0953
     20 N          64.0805   91.7364   15.5936 N.3     1  UNL1       -0.2934
     21 C          64.8642   91.3030   14.3903 C.3     1  UNL1        0.0748
     22 C          65.0073   89.8437   14.0742 C.3     1  UNL1        0.0432
     23 H          64.7163   92.2771   16.1800 H       1  UNL1        0.1236
     24 C          63.8398   91.9727   11.5407 C.3     1  UNL1        0.0725
     25 C          63.6782   90.9112   10.4933 C.3     1  UNL1        0.0187
     26 C          62.5739   89.9029   10.6115 C.3     1  UNL1        0.0172
     27 C          61.3295   90.0535    9.7876 C.3     1  UNL1        0.0028
     28 C          60.2252   89.0452    9.9058 C.3     1  UNL1        0.0171
     29 C          60.3654   87.8863   10.8478 C.3     1  UNL1        0.0686
     30 N          61.6098   87.7358   11.6716 N.3     1  UNL1       -0.2975
     31 C          62.7141   88.7440   11.5535 C.3     1  UNL1        0.0686
     32 H          62.0123   86.8291   11.4341 H       1  UNL1        0.1232
@<TRIPOS>BOND
     1    13    14   ar
     2    14    15   ar
     3    15    16   ar
     4    16    17   ar
     5    17    18   ar
     6    17    19    1
     7    19    20    1
     8    20    21    1
     9    21    12    1
    10    12     1    1
    11     1    24    1
    12    24    25    1
    13    26    25    1
    14    26    27    1
    15    27    28    1
    16    28    29    1
    17    29    30    1
    18    30    31    1
    19     2     1    1
    20     2     3    1
    21     3     4    1
    22     4     5    1
    23     5     6    1
    24     6     7   ar
    25     7     8   ar
    26     8     9   ar
    27     9    10   ar
    28    10    11   ar
    29    21    22    1
    30    18    13   ar
    31    31    26    1
    32    11     2    1
    33    22    16    1
    34    11     6   ar
    35    20    23    1
    36    30    32    1
@<TRIPOS>MOLECULE
*****
 32 36 0 0 0
SMALL
GASTEIGER

@<TRIPOS>ATOM
      1 N          62.4532   87.3667   11.8786 N.3     1  UNL1       -0.2679
      2 C          62.8071   88.7906   11.5669 C.3     1  UNL1        0.0978
      3 C          62.4176   89.3888   10.2477 C.3     1  UNL1        0.0224
      4 C          62.7716   90.8128    9.9361 C.3     1  UNL1        0.0065
      5 C          63.5151   91.6385   10.9437 C.3     1  UNL1        0.0277
      6 C          63.9046   91.0404   12.2630 C.ar    1  UNL1       -0.0073
      7 C          64.6481   91.8661   13.2706 C.ar    1  UNL1       -0.0015
      8 C          65.0376   91.2679   14.5899 C.ar    1  UNL1        0.0203
      9 C          64.6836   89.8440   14.9015 C.ar    1  UNL1        0.0985
     10 N          63.9402   89.0183   13.8939 N.ar    1  UNL1       -0.2471
     11 C          63.5506   89.6165   12.5746 C.ar    1  UNL1        0.0695
     12 C          63.4465   86.4813   12.5710 C.3     1  UNL1        0.0886
     13 C          62.0815   79.7790   13.2539 C.ar    1  UNL1       -0.0003
     14 C          62.6697   80.0244   11.8960 C.ar    1  UNL1       -0.0003
     15 C          63.0603   81.4140   11.4879 C.ar    1  UNL1       -0.0045
     16 C          62.8628   82.5581   12.4376 C.ar    1  UNL1       -0.0234
     17 C          62.2746   82.3126   13.7954 C.ar    1  UNL1       -0.0103
     18 C          61.8839   80.9231   14.2036 C.ar    1  UNL1       -0.0032
     19 C          62.0770   83.4568   14.7452 C.3     1  UNL1        0.0953
     20 N          62.4676   84.8463   14.3371 N.3     1  UNL1       -0.2934
     21 C          63.0558   85.0917   12.9792 C.3     1  UNL1        0.0748
     22 C          63.2534   83.9476   12.0295 C.3     1  UNL1        0.0432
     23 H          63.1537   85.1714   15.0183 H       1  UNL1        0.1236
     24 C          61.1060   86.8282   11.4978 C.3     1  UNL1        0.0725
     25 C          60.5490   87.0985   10.1315 C.3     1  UNL1        0.0187
     26 C          61.0268   86.2996    8.9553 C.3     1  UNL1        0.0172
     27 C          62.4438   85.8099    8.9071 C.3     1  UNL1        0.0028
     28 C          62.9216   85.0110    7.7309 C.3     1  UNL1        0.0171
     29 C          61.9824   84.7019    6.6029 C.3     1  UNL1        0.0686
     30 N          60.5654   85.1916    6.6511 N.3     1  UNL1       -0.2975
     31 C          60.0876   85.9905    7.8273 C.3     1  UNL1        0.0686
     32 H          59.9669   84.3678    6.5921 H       1  UNL1        0.1232
@<TRIPOS>BOND
     1    13    14   ar
     2    14    15   ar
     3    15    16   ar
     4    16    17   ar
     5    17    18   ar
     6    17    19    1
     7    19    20    1
     8    20    21    1
     9    21    12    1
    10    12     1    1
    11     1    24    1
    12    24    25    1
    13    26    25    1
    14    26    27    1
    15    27    28    1
    16    28    29    1
    17    29    30    1
    18    30    31    1
    19     2     1    1
    20     2     3    1
    21     3     4    1
    22     4     5    1
    23     5     6    1
    24     6     7   ar
    25     7     8   ar
    26     8     9   ar
    27     9    10   ar
    28    10    11   ar
    29    21    22    1
    30    18    13   ar
    31    31    26    1
    32    11     2    1
    33    22    16    1
    34    11     6   ar
    35    20    23    1
    36    30    32    1
@<TRIPOS>MOLECULE
*****
 32 36 0 0 0
SMALL
GASTEIGER

@<TRIPOS>ATOM
      1 N          62.7735   89.8758   12.8416 N.3     1  UNL1       -0.2679
      2 C          63.7474   90.8985   12.3361 C.3     1  UNL1        0.0978
      3 C          63.8217   91.2027   10.8691 C.3     1  UNL1        0.0224
      4 C          64.7957   92.2254   10.3636 C.3     1  UNL1        0.0065
      5 C          65.6953   92.9439   11.3250 C.3     1  UNL1        0.0277
      6 C          65.6211   92.6397   12.7920 C.ar    1  UNL1       -0.0073
      7 C          66.5207   93.3581   13.7534 C.ar    1  UNL1       -0.0015
      8 C          66.4465   93.0539   15.2204 C.ar    1  UNL1        0.0203
      9 C          65.4726   92.0312   15.7259 C.ar    1  UNL1        0.0985
     10 N          64.5729   91.3127   14.7645 N.ar    1  UNL1       -0.2471
     11 C          64.6472   91.6170   13.2975 C.ar    1  UNL1        0.0695
     12 C          61.4024   89.7842   12.2402 C.3     1  UNL1        0.0886
     13 C          61.4619   85.1292    7.1829 C.ar    1  UNL1       -0.0003
     14 C          62.7913   85.1166    7.8775 C.ar    1  UNL1       -0.0003
     15 C          63.0453   86.0451    9.0279 C.ar    1  UNL1       -0.0045
     16 C          61.9699   86.9862    9.4837 C.ar    1  UNL1       -0.0234
     17 C          60.6405   86.9987    8.7891 C.ar    1  UNL1       -0.0103
     18 C          60.3865   86.0703    7.6387 C.ar    1  UNL1       -0.0032
     19 C          59.5650   87.9399    9.2448 C.3     1  UNL1        0.0953
     20 N          59.8189   88.8684   10.3952 N.3     1  UNL1       -0.2934
     21 C          61.1484   88.8557   11.0898 C.3     1  UNL1        0.0748
     22 C          62.2238   87.9146   10.6341 C.3     1  UNL1        0.0432
     23 H          59.1149   88.6596   11.1031 H       1  UNL1        0.1236
     24 C          63.1708   88.9446   13.9484 C.3     1  UNL1        0.0725
     25 C          64.2627   87.9401   13.7279 C.3     1  UNL1        0.0187
     26 C          64.0179   86.4896   14.0214 C.3     1  UNL1        0.0172
     27 C          63.3375   85.6229   13.0035 C.3     1  UNL1        0.0028
     28 C          63.0927   84.1724   13.2969 C.3     1  UNL1        0.0171
     29 C          63.5283   83.5886   14.6083 C.3     1  UNL1        0.0686
     30 N          64.2086   84.4553   15.6260 N.3     1  UNL1       -0.2975
     31 C          64.4534   85.9058   15.3326 C.3     1  UNL1        0.0686
     32 H          65.1194   84.0342   15.8097 H       1  UNL1        0.1232
@<TRIPOS>BOND
     1    13    14   ar
     2    14    15   ar
     3    15    16   ar
     4    16    17   ar
     5    17    18   ar
     6    17    19    1
     7    19    20    1
     8    20    21    1
     9    21    12    1
    10    12     1    1
    11     1    24    1
    12    24    25    1
    13    26    25    1
    14    26    27    1
    15    27    28    1
    16    28    29    1
    17    29    30    1
    18    30    31    1
    19     2     1    1
    20     2     3    1
    21     3     4    1
    22     4     5    1
    23     5     6    1
    24     6     7   ar
    25     7     8   ar
    26     8     9   ar
    27     9    10   ar
    28    10    11   ar
    29    21    22    1
    30    18    13   ar
    31    31    26    1
    32    11     2    1
    33    22    16    1
    34    11     6   ar
    35    20    23    1
    36    30    32    1
@<TRIPOS>MOLECULE
*****
 32 36 0 0 0
SMALL
GASTEIGER

@<TRIPOS>ATOM
      1 N          63.5315   88.7669   13.6109 N.3     1  UNL1       -0.2679
      2 C          63.0142   89.1296   12.2504 C.3     1  UNL1        0.0978
      3 C          63.1128   90.5449   11.7634 C.3     1  UNL1        0.0224
      4 C          62.5955   90.9076   10.4029 C.3     1  UNL1        0.0065
      5 C          61.9797   89.8551    9.5295 C.3     1  UNL1        0.0277
      6 C          61.8811   88.4398   10.0166 C.ar    1  UNL1       -0.0073
      7 C          61.2653   87.3873    9.1432 C.ar    1  UNL1       -0.0015
      8 C          61.1667   85.9720    9.6302 C.ar    1  UNL1        0.0203
      9 C          61.6839   85.6092   10.9907 C.ar    1  UNL1        0.0985
     10 N          62.2998   86.6618   11.8640 N.ar    1  UNL1       -0.2471
     11 C          62.3984   88.0771   11.3770 C.ar    1  UNL1        0.0695
     12 C          63.3232   89.7008   14.7661 C.3     1  UNL1        0.0886
     13 C          68.9445   93.5745   15.5696 C.ar    1  UNL1       -0.0003
     14 C          69.1551   92.6363   14.4183 C.ar    1  UNL1       -0.0003
     15 C          68.0730   91.6740   14.0274 C.ar    1  UNL1       -0.0045
     16 C          66.7802   91.6498   14.7877 C.ar    1  UNL1       -0.0234
     17 C          66.5696   92.5879   15.9390 C.ar    1  UNL1       -0.0103
     18 C          67.6517   93.5503   16.3299 C.ar    1  UNL1       -0.0032
     19 C          65.2768   92.5637   16.6993 C.3     1  UNL1        0.0953
     20 N          64.1946   91.6014   16.3084 N.3     1  UNL1       -0.2934
     21 C          64.4053   90.6632   15.1570 C.3     1  UNL1        0.0748
     22 C          65.6981   90.6874   14.3967 C.3     1  UNL1        0.0432
     23 H          63.3703   92.1596   16.0863 H       1  UNL1        0.1236
     24 C          64.2571   87.4702   13.8162 C.3     1  UNL1        0.0725
     25 C          63.8903   86.5794   14.9659 C.3     1  UNL1        0.0187
     26 C          63.6712   85.1131   14.7384 C.3     1  UNL1        0.0172
     27 C          64.3998   84.4086   13.6325 C.3     1  UNL1        0.0028
     28 C          64.1807   82.9422   13.4050 C.3     1  UNL1        0.0171
     29 C          63.2331   82.1803   14.2835 C.3     1  UNL1        0.0686
     30 N          62.5046   82.8848   15.3893 N.3     1  UNL1       -0.2975
     31 C          62.7237   84.3512   15.6168 C.3     1  UNL1        0.0686
     32 H          62.7573   82.4113   16.2567 H       1  UNL1        0.1232
@<TRIPOS>BOND
     1    13    14   ar
     2    14    15   ar
     3    15    16   ar
     4    16    17   ar
     5    17    18   ar
     6    17    19    1
     7    19    20    1
     8    20    21    1
     9    21    12    1
    10    12     1    1
    11     1    24    1
    12    24    25    1
    13    26    25    1
    14    26    27    1
    15    27    28    1
    16    28    29    1
    17    29    30    1
    18    30    31    1
    19     2     1    1
    20     2     3    1
    21     3     4    1
    22     4     5    1
    23     5     6    1
    24     6     7   ar
    25     7     8   ar
    26     8     9   ar
    27     9    10   ar
    28    10    11   ar
    29    21    22    1
    30    18    13   ar
    31    31    26    1
    32    11     2    1
    33    22    16    1
    34    11     6   ar
    35    20    23    1
    36    30    32    1
@<TRIPOS>MOLECULE
*****
 32 36 0 0 0
SMALL
GASTEIGER

@<TRIPOS>ATOM
      1 N          63.3853   90.4905   11.6050 N.3     1  UNL1       -0.2679
      2 C          64.3871   91.6064   11.6380 C.3     1  UNL1        0.0978
      3 C          64.7576   92.3193   10.3713 C.3     1  UNL1        0.0224
      4 C          65.7594   93.4353   10.4043 C.3     1  UNL1        0.0065
      5 C          66.3907   93.8383   11.7039 C.3     1  UNL1        0.0277
      6 C          66.0202   93.1253   12.9706 C.ar    1  UNL1       -0.0073
      7 C          66.6515   93.5283   14.2702 C.ar    1  UNL1       -0.0015
      8 C          66.2810   92.8154   15.5369 C.ar    1  UNL1        0.0203
      9 C          65.2793   91.6994   15.5039 C.ar    1  UNL1        0.0985
     10 N          64.6480   91.2965   14.2043 N.ar    1  UNL1       -0.2471
     11 C          65.0185   92.0094   12.9377 C.ar    1  UNL1        0.0695
     12 C          62.9311   89.8523   12.8843 C.3     1  UNL1        0.0886
     13 C          63.9585   83.0621   13.1801 C.ar    1  UNL1       -0.0003
     14 C          63.1345   83.3817   11.9681 C.ar    1  UNL1       -0.0003
     15 C          62.7643   84.8036   11.6666 C.ar    1  UNL1       -0.0045
     16 C          63.2180   85.9060   12.5770 C.ar    1  UNL1       -0.0234
     17 C          64.0419   85.5864   13.7890 C.ar    1  UNL1       -0.0103
     18 C          64.4122   84.1645   14.0905 C.ar    1  UNL1       -0.0032
     19 C          64.4956   86.6888   14.6995 C.3     1  UNL1        0.0953
     20 N          64.1254   88.1108   14.3979 N.3     1  UNL1       -0.2934
     21 C          63.3014   88.4303   13.1859 C.3     1  UNL1        0.0748
     22 C          62.8477   87.3280   12.2755 C.3     1  UNL1        0.0432
     23 H          64.9989   88.6292   14.3052 H       1  UNL1        0.1236
     24 C          62.8378   90.0126   10.2929 C.3     1  UNL1        0.0725
     25 C          61.3551   89.9708   10.0694 C.3     1  UNL1        0.0187
     26 C          60.7471   88.8505    9.2788 C.3     1  UNL1        0.0172
     27 C          61.1594   87.4333    9.5469 C.3     1  UNL1        0.0028
     28 C          60.5514   86.3130    8.7562 C.3     1  UNL1        0.0171
     29 C          59.5310   86.6098    7.6974 C.3     1  UNL1        0.0686
     30 N          59.1188   88.0269    7.4294 N.3     1  UNL1       -0.2975
     31 C          59.7268   89.1472    8.2201 C.3     1  UNL1        0.0686
     32 H          58.1110   88.0738    7.5794 H       1  UNL1        0.1232
@<TRIPOS>BOND
     1    13    14   ar
     2    14    15   ar
     3    15    16   ar
     4    16    17   ar
     5    17    18   ar
     6    17    19    1
     7    19    20    1
     8    20    21    1
     9    21    12    1
    10    12     1    1
    11     1    24    1
    12    24    25    1
    13    26    25    1
    14    26    27    1
    15    27    28    1
    16    28    29    1
    17    29    30    1
    18    30    31    1
    19     2     1    1
    20     2     3    1
    21     3     4    1
    22     4     5    1
    23     5     6    1
    24     6     7   ar
    25     7     8   ar
    26     8     9   ar
    27     9    10   ar
    28    10    11   ar
    29    21    22    1
    30    18    13   ar
    31    31    26    1
    32    11     2    1
    33    22    16    1
    34    11     6   ar
    35    20    23    1
    36    30    32    1
@<TRIPOS>MOLECULE
*****
 32 36 0 0 0
SMALL
GASTEIGER

@<TRIPOS>ATOM
      1 N          63.3717   90.8789   12.9362 N.3     1  UNL1       -0.2679
      2 C          64.5866   91.6803   12.5736 C.3     1  UNL1        0.0978
      3 C          64.8965   91.9626   11.1333 C.3     1  UNL1        0.0224
      4 C          66.1116   92.7640   10.7707 C.3     1  UNL1        0.0065
      5 C          67.0166   93.2833   11.8483 C.3     1  UNL1        0.0277
      6 C          66.7067   93.0011   13.2886 C.ar    1  UNL1       -0.0073
      7 C          67.6117   93.5203   14.3662 C.ar    1  UNL1       -0.0015
      8 C          67.3018   93.2381   15.8064 C.ar    1  UNL1        0.0203
      9 C          66.0868   92.4366   16.1691 C.ar    1  UNL1        0.0985
     10 N          65.1818   91.9174   15.0914 N.ar    1  UNL1       -0.2471
     11 C          65.4917   92.1996   13.6512 C.ar    1  UNL1        0.0695
     12 C          62.1799   90.8696   12.0253 C.3     1  UNL1        0.0886
     13 C          59.9400   86.0488    7.6673 C.ar    1  UNL1       -0.0003
     14 C          59.3170   87.3647    7.3063 C.ar    1  UNL1       -0.0003
     15 C          59.6403   88.5920    8.1058 C.ar    1  UNL1       -0.0045
     16 C          60.5867   88.5035    9.2661 C.ar    1  UNL1       -0.0234
     17 C          61.2097   87.1876    9.6270 C.ar    1  UNL1       -0.0103
     18 C          60.8864   85.9603    8.8276 C.ar    1  UNL1       -0.0032
     19 C          62.1562   87.0990   10.7874 C.3     1  UNL1        0.0953
     20 N          62.4796   88.3264   11.5869 N.3     1  UNL1       -0.2934
     21 C          61.8565   89.6423   11.2259 C.3     1  UNL1        0.0748
     22 C          60.9101   89.7308   10.0655 C.3     1  UNL1        0.0432
     23 H          63.4901   88.4546   11.5337 H       1  UNL1        0.1236
     24 C          63.3484   90.0867   14.2098 C.3     1  UNL1        0.0725
     25 C          64.3040   88.9466   14.4014 C.3     1  UNL1        0.0187
     26 C          63.9523   87.8208   15.3282 C.3     1  UNL1        0.0172
     27 C          63.1441   88.0904   16.5628 C.3     1  UNL1        0.0028
     28 C          62.7924   86.9647   17.4896 C.3     1  UNL1        0.0171
     29 C          63.2488   85.5693   17.1818 C.3     1  UNL1        0.0686
     30 N          64.0569   85.2998   15.9472 N.3     1  UNL1       -0.2975
     31 C          64.4086   86.4255   15.0204 C.3     1  UNL1        0.0686
     32 H          63.5352   84.6174   15.3970 H       1  UNL1        0.1232
@<TRIPOS>BOND
     1    13    14   ar
     2    14    15   ar
     3    15    16   ar
     4    16    17   ar
     5    17    18   ar
     6    17    19    1
     7    19    20    1
     8    20    21    1
     9    21    12    1
    10    12     1    1
    11     1    24    1
    12    24    25    1
    13    26    25    1
    14    26    27    1
    15    27    28    1
    16    28    29    1
    17    29    30    1
    18    30    31    1
    19     2     1    1
    20     2     3    1
    21     3     4    1
    22     4     5    1
    23     5     6    1
    24     6     7   ar
    25     7     8   ar
    26     8     9   ar
    27     9    10   ar
    28    10    11   ar
    29    21    22    1
    30    18    13   ar
    31    31    26    1
    32    11     2    1
    33    22    16    1
    34    11     6   ar
    35    20    23    1
    36    30    32    1
@<TRIPOS>MOLECULE
*****
 32 36 0 0 0
SMALL
GASTEIGER

@<TRIPOS>ATOM
      1 N          63.7567   89.9379   13.5381 N.3     1  UNL1       -0.2679
      2 C          64.6774   91.0741   13.8717 C.3     1  UNL1        0.0978
      3 C          65.1685   91.2535   15.2776 C.3     1  UNL1        0.0224
      4 C          66.0894   92.3897   15.6111 C.3     1  UNL1        0.0065
      5 C          66.5190   93.3465   14.5388 C.3     1  UNL1        0.0277
      6 C          66.0279   93.1670   13.1328 C.ar    1  UNL1       -0.0073
      7 C          66.4576   94.1238   12.0605 C.ar    1  UNL1       -0.0015
      8 C          65.9665   93.9443   10.6546 C.ar    1  UNL1        0.0203
      9 C          65.0457   92.8082   10.3210 C.ar    1  UNL1        0.0985
     10 N          64.6160   91.8515   11.3934 N.ar    1  UNL1       -0.2471
     11 C          65.1072   92.0309   12.7993 C.ar    1  UNL1        0.0695
     12 C          62.3027   90.2018   13.2804 C.3     1  UNL1        0.0886
     13 C          60.1436   86.8523    7.6795 C.ar    1  UNL1       -0.0003
     14 C          61.1983   86.0348    8.3645 C.ar    1  UNL1       -0.0003
     15 C          61.8411   86.5412    9.6216 C.ar    1  UNL1       -0.0045
     16 C          61.4291   87.8651   10.1939 C.ar    1  UNL1       -0.0234
     17 C          60.3744   88.6826    9.5089 C.ar    1  UNL1       -0.0103
     18 C          59.7316   88.1762    8.2518 C.ar    1  UNL1       -0.0032
     19 C          59.9624   90.0066   10.0812 C.3     1  UNL1        0.0953
     20 N          60.6051   90.5130   11.3383 N.3     1  UNL1       -0.2934
     21 C          61.6599   89.6954   12.0232 C.3     1  UNL1        0.0748
     22 C          62.0719   88.3715   11.4510 C.3     1  UNL1        0.0432
     23 H          59.8559   90.6542   12.0159 H       1  UNL1        0.1236
     24 C          64.2898   88.5379   13.4623 C.3     1  UNL1        0.0725
     25 C          64.2173   87.6417   14.6629 C.3     1  UNL1        0.0187
     26 C          64.0972   86.1572   14.4844 C.3     1  UNL1        0.0172
     27 C          63.5543   85.5973   13.2031 C.3     1  UNL1        0.0028
     28 C          63.4343   84.1128   13.0247 C.3     1  UNL1        0.0171
     29 C          63.8572   83.1882   14.1276 C.3     1  UNL1        0.0686
     30 N          64.4001   83.7481   15.4089 N.3     1  UNL1       -0.2975
     31 C          64.5201   85.2326   15.5873 C.3     1  UNL1        0.0686
     32 H          65.3364   83.3608   15.5261 H       1  UNL1        0.1232
@<TRIPOS>BOND
     1    13    14   ar
     2    14    15   ar
     3    15    16   ar
     4    16    17   ar
     5    17    18   ar
     6    17    19    1
     7    19    20    1
     8    20    21    1
     9    21    12    1
    10    12     1    1
    11     1    24    1
    12    24    25    1
    13    26    25    1
    14    26    27    1
    15    27    28    1
    16    28    29    1
    17    29    30    1
    18    30    31    1
    19     2     1    1
    20     2     3    1
    21     3     4    1
    22     4     5    1
    23     5     6    1
    24     6     7   ar
    25     7     8   ar
    26     8     9   ar
    27     9    10   ar
    28    10    11   ar
    29    21    22    1
    30    18    13   ar
    31    31    26    1
    32    11     2    1
    33    22    16    1
    34    11     6   ar
    35    20    23    1
    36    30    32    1
@<TRIPOS>MOLECULE
*****
 32 36 0 0 0
SMALL
GASTEIGER

@<TRIPOS>ATOM
      1 N          63.0931   85.2229   12.7895 N.3     1  UNL1       -0.2679
      2 C          63.2907   83.9655   11.9960 C.3     1  UNL1        0.0978
      3 C          63.9685   84.0210   10.6590 C.3     1  UNL1        0.0224
      4 C          64.1662   82.7635    9.8655 C.3     1  UNL1        0.0065
      5 C          63.6860   81.4505   10.4089 C.3     1  UNL1        0.0277
      6 C          63.0082   81.3949   11.7459 C.ar    1  UNL1       -0.0073
      7 C          62.5280   80.0819   12.2894 C.ar    1  UNL1       -0.0015
      8 C          61.8502   80.0264   13.6263 C.ar    1  UNL1        0.0203
      9 C          61.6526   81.2838   14.4198 C.ar    1  UNL1        0.0985
     10 N          62.1327   82.5968   13.8764 N.ar    1  UNL1       -0.2471
     11 C          62.8105   82.6524   12.5394 C.ar    1  UNL1        0.0695
     12 C          63.8717   85.4429   14.0526 C.3     1  UNL1        0.0886
     13 C          64.2646   91.9593   16.2049 C.ar    1  UNL1       -0.0003
     14 C          64.9531   91.8382   14.8778 C.ar    1  UNL1       -0.0003
     15 C          65.0122   90.5107   14.1819 C.ar    1  UNL1       -0.0045
     16 C          64.3828   89.3043   14.8131 C.ar    1  UNL1       -0.0234
     17 C          63.6944   89.4254   16.1402 C.ar    1  UNL1       -0.0103
     18 C          63.6353   90.7529   16.8361 C.ar    1  UNL1       -0.0032
     19 C          63.0650   88.2190   16.7715 C.3     1  UNL1        0.0953
     20 N          63.1241   86.8915   16.0757 N.3     1  UNL1       -0.2934
     21 C          63.8126   86.7704   14.7485 C.3     1  UNL1        0.0748
     22 C          64.4420   87.9768   14.1172 C.3     1  UNL1        0.0432
     23 H          62.1600   86.5891   15.9359 H       1  UNL1        0.1236
     24 C          62.1168   86.2604   12.3199 C.3     1  UNL1        0.0725
     25 C          62.4958   87.2014   11.2151 C.3     1  UNL1        0.0187
     26 C          61.5224   87.4939   10.1120 C.3     1  UNL1        0.0172
     27 C          60.9039   86.3668    9.3391 C.3     1  UNL1        0.0028
     28 C          59.9304   86.6592    8.2360 C.3     1  UNL1        0.0171
     29 C          59.5755   88.0788    7.9057 C.3     1  UNL1        0.0686
     30 N          60.1940   89.2058    8.6785 N.3     1  UNL1       -0.2975
     31 C          61.1675   88.9133    9.7816 C.3     1  UNL1        0.0686
     32 H          59.4267   89.7331    9.0951 H       1  UNL1        0.1232
@<TRIPOS>BOND
     1    13    14   ar
     2    14    15   ar
     3    15    16   ar
     4    16    17   ar
     5    17    18   ar
     6    17    19    1
     7    19    20    1
     8    20    21    1
     9    21    12    1
    10    12     1    1
    11     1    24    1
    12    24    25    1
    13    26    25    1
    14    26    27    1
    15    27    28    1
    16    28    29    1
    17    29    30    1
    18    30    31    1
    19     2     1    1
    20     2     3    1
    21     3     4    1
    22     4     5    1
    23     5     6    1
    24     6     7   ar
    25     7     8   ar
    26     8     9   ar
    27     9    10   ar
    28    10    11   ar
    29    21    22    1
    30    18    13   ar
    31    31    26    1
    32    11     2    1
    33    22    16    1
    34    11     6   ar
    35    20    23    1
    36    30    32    1
@<TRIPOS>MOLECULE
*****
 32 36 0 0 0
SMALL
GASTEIGER

@<TRIPOS>ATOM
      1 N          64.1336   89.9865   13.8527 N.3     1  UNL1       -0.2679
      2 C          64.9824   91.2090   14.0391 C.3     1  UNL1        0.0978
      3 C          65.5537   91.5268   15.3891 C.3     1  UNL1        0.0224
      4 C          66.4026   92.7494   15.5754 C.3     1  UNL1        0.0065
      5 C          66.6802   93.6542   14.4116 C.3     1  UNL1        0.0277
      6 C          66.1088   93.3364   13.0616 C.ar    1  UNL1       -0.0073
      7 C          66.3864   94.2412   11.8979 C.ar    1  UNL1       -0.0015
      8 C          65.8150   93.9234   10.5478 C.ar    1  UNL1        0.0203
      9 C          64.9662   92.7009   10.3615 C.ar    1  UNL1        0.0985
     10 N          64.6887   91.7961   11.5253 N.ar    1  UNL1       -0.2471
     11 C          65.2600   92.1139   12.8753 C.ar    1  UNL1        0.0695
     12 C          62.7641   90.1085   13.2530 C.3     1  UNL1        0.0886
     13 C          60.1207   86.7698    7.8571 C.ar    1  UNL1       -0.0003
     14 C          59.6603   88.1970    7.8251 C.ar    1  UNL1       -0.0003
     15 C          60.0969   89.1502    8.8978 C.ar    1  UNL1       -0.0045
     16 C          60.9939   88.6762   10.0026 C.ar    1  UNL1       -0.0234
     17 C          61.4543   87.2490   10.0347 C.ar    1  UNL1       -0.0103
     18 C          61.0177   86.2958    8.9619 C.ar    1  UNL1       -0.0032
     19 C          62.3513   86.7749   11.1395 C.3     1  UNL1        0.0953
     20 N          62.7879   87.7281   12.2123 N.3     1  UNL1       -0.2934
     21 C          62.3275   89.1553   12.1802 C.3     1  UNL1        0.0748
     22 C          61.4305   89.6293   11.0754 C.3     1  UNL1        0.0432
     23 H          63.8076   87.7471   12.1921 H       1  UNL1        0.1236
     24 C          64.6541   88.6418   14.2662 C.3     1  UNL1        0.0725
     25 C          63.9831   87.8862   15.3746 C.3     1  UNL1        0.0187
     26 C          63.8934   86.3900   15.3153 C.3     1  UNL1        0.0172
     27 C          64.8316   85.6167   14.4368 C.3     1  UNL1        0.0028
     28 C          64.7418   84.1205   14.3774 C.3     1  UNL1        0.0171
     29 C          63.7139   83.3978   15.1966 C.3     1  UNL1        0.0686
     30 N          62.7758   84.1711   16.0751 N.3     1  UNL1       -0.2975
     31 C          62.8655   85.6673   16.1344 C.3     1  UNL1        0.0686
     32 H          62.9144   83.8299   17.0263 H       1  UNL1        0.1232
@<TRIPOS>BOND
     1    13    14   ar
     2    14    15   ar
     3    15    16   ar
     4    16    17   ar
     5    17    18   ar
     6    17    19    1
     7    19    20    1
     8    20    21    1
     9    21    12    1
    10    12     1    1
    11     1    24    1
    12    24    25    1
    13    26    25    1
    14    26    27    1
    15    27    28    1
    16    28    29    1
    17    29    30    1
    18    30    31    1
    19     2     1    1
    20     2     3    1
    21     3     4    1
    22     4     5    1
    23     5     6    1
    24     6     7   ar
    25     7     8   ar
    26     8     9   ar
    27     9    10   ar
    28    10    11   ar
    29    21    22    1
    30    18    13   ar
    31    31    26    1
    32    11     2    1
    33    22    16    1
    34    11     6   ar
    35    20    23    1
    36    30    32    1
