@<TRIPOS>MOLECULE
*****
 29 33 0 0 0
SMALL
GASTEIGER

@<TRIPOS>ATOM
      1 C          62.6830   89.7034   12.5585 C.ar    1  UNL1        0.2182
      2 N          61.7966   90.3384   11.5284 N.ar    1  UNL1       -0.2116
      3 C          61.4167   89.2846   10.5308 C.ar    1  UNL1        0.1185
      4 C          60.5616   89.3301    9.2992 C.ar    1  UNL1        0.0223
      5 C          60.3582   88.0894    8.4812 C.ar    1  UNL1        0.0017
      6 C          61.0098   86.8032    8.8947 C.ar    1  UNL1        0.0031
      7 C          61.8649   86.7577   10.1263 C.ar    1  UNL1        0.0361
      8 C          62.0683   87.9984   10.9443 C.ar    1  UNL1        0.1643
      9 O          62.8509   88.2573   12.1975 O.2     1  UNL1       -0.4378
     10 C          62.5165   85.4715   10.5398 C.ar    1  UNL1        0.0030
     11 C          63.2767   84.6586    9.5341 C.ar    1  UNL1        0.0001
     12 C          63.9284   83.3724    9.9476 C.ar    1  UNL1        0.0000
     13 C          63.8198   82.8990   11.3668 C.ar    1  UNL1        0.0000
     14 C          63.0596   83.7119   12.3724 C.ar    1  UNL1        0.0000
     15 C          62.4080   84.9981   11.9589 C.ar    1  UNL1        0.0001
     16 C          63.2941   90.3935   13.7419 C.3     1  UNL1        0.2065
     17 O          67.9839   91.5497   15.6574 O.2     1  UNL1       -0.2422
     18 C          66.9637   91.6621   14.5635 C.2     1  UNL1        0.3644
     19 C          67.2681   92.4649   13.3336 C.3     1  UNL1        0.2333
     20 C          66.2479   92.5773   12.2398 C.2     1  UNL1        0.3159
     21 N          64.9232   91.8869   12.3759 N.2     1  UNL1       -0.0039
     22 C          64.6188   91.0840   13.6058 C.2     1  UNL1        0.3581
     23 N          65.6390   90.9715   14.6996 N.am    1  UNL1        0.0289
     24 N          66.5523   93.3803   11.0099 N.pl3   1  UNL1       -0.1888
     25 C          65.9227   94.7283   10.8194 C.3     1  UNL1        0.2343
     26 C          66.2271   95.5313    9.5895 C.3     1  UNL1        0.1929
     27 O          67.1611   94.9861    8.5501 O.3     1  UNL1       -0.3449
     28 C          67.7908   93.6381    8.7406 C.3     1  UNL1        0.1929
     29 C          67.4864   92.8351    9.9705 C.3     1  UNL1        0.2343
@<TRIPOS>BOND
     1    17    18    2
     2    18    19    1
     3    19    20    1
     4    20    24    1
     5    24    25    1
     6    25    26    1
     7    26    27    1
     8    27    28    1
     9    28    29    1
    10    20    21    2
    11    21    22    1
    12    22    16    1
    13    16     1    1
    14     1     2   ar
    15     2     3   ar
    16     3     4   ar
    17     4     5   ar
    18     5     6   ar
    19     6     7   ar
    20     7    10    1
    21    10    11   ar
    22    11    12   ar
    23    12    13   ar
    24    13    14   ar
    25    14    15   ar
    26     7     8   ar
    27     8     9   ar
    28    22    23    2
    29    23    18    1
    30    29    24    1
    31     9     1   ar
    32     8     3   ar
    33    15    10   ar
@<TRIPOS>MOLECULE
*****
 29 33 0 0 0
SMALL
GASTEIGER

@<TRIPOS>ATOM
      1 C          62.4906   90.4184   11.0370 C.ar    1  UNL1        0.2182
      2 N          63.4492   91.5705   10.9752 N.ar    1  UNL1       -0.2116
      3 C          64.2977   91.5344   12.2116 C.ar    1  UNL1        0.1185
      4 C          65.4096   92.4192   12.6921 C.ar    1  UNL1        0.0223
      5 C          66.0873   92.1295   13.9985 C.ar    1  UNL1        0.0017
      6 C          65.6532   90.9550   14.8244 C.ar    1  UNL1        0.0031
      7 C          64.5414   90.0703   14.3439 C.ar    1  UNL1        0.0361
      8 C          63.8636   90.3599   13.0376 C.ar    1  UNL1        0.1643
      9 O          62.7468   89.6702   12.3116 O.2     1  UNL1       -0.4378
     10 C          64.1073   88.8958   15.1699 C.ar    1  UNL1        0.0030
     11 C          64.4355   87.5021   14.7227 C.ar    1  UNL1        0.0001
     12 C          64.0014   86.3277   15.5487 C.ar    1  UNL1        0.0000
     13 C          63.2391   86.5468   16.8217 C.ar    1  UNL1        0.0000
     14 C          62.9108   87.9405   17.2689 C.ar    1  UNL1        0.0000
     15 C          63.3449   89.1149   16.4430 C.ar    1  UNL1        0.0001
     16 C          61.4574   90.0748   10.0053 C.3     1  UNL1        0.2065
     17 O          58.9342   86.5241    7.1724 O.2     1  UNL1       -0.2422
     18 C          59.9771   86.8690    8.1938 C.2     1  UNL1        0.3644
     19 C          60.8012   85.7835    8.8203 C.3     1  UNL1        0.2333
     20 C          61.8441   86.1285    9.8418 C.2     1  UNL1        0.3159
     21 N          62.0629   87.5589   10.2368 N.2     1  UNL1       -0.0039
     22 C          61.2387   88.6444    9.6103 C.2     1  UNL1        0.3581
     23 N          60.1958   88.2995    8.5888 N.am    1  UNL1        0.0289
     24 N          62.6683   85.0429   10.4682 N.pl3   1  UNL1       -0.1888
     25 C          63.4345   84.0881    9.6015 C.3     1  UNL1        0.2343
     26 C          64.2586   83.0026   10.2279 C.3     1  UNL1        0.1929
     27 O          64.3166   82.8719   11.7210 O.3     1  UNL1       -0.3449
     28 C          63.5504   83.8268   12.5878 C.3     1  UNL1        0.1929
     29 C          62.7263   84.9123   11.9614 C.3     1  UNL1        0.2343
@<TRIPOS>BOND
     1    17    18    2
     2    18    19    1
     3    19    20    1
     4    20    24    1
     5    24    25    1
     6    25    26    1
     7    26    27    1
     8    27    28    1
     9    28    29    1
    10    20    21    2
    11    21    22    1
    12    22    16    1
    13    16     1    1
    14     1     2   ar
    15     2     3   ar
    16     3     4   ar
    17     4     5   ar
    18     5     6   ar
    19     6     7   ar
    20     7    10    1
    21    10    11   ar
    22    11    12   ar
    23    12    13   ar
    24    13    14   ar
    25    14    15   ar
    26     7     8   ar
    27     8     9   ar
    28    22    23    2
    29    23    18    1
    30    29    24    1
    31     9     1   ar
    32     8     3   ar
    33    15    10   ar
@<TRIPOS>MOLECULE
*****
 29 33 0 0 0
SMALL
GASTEIGER

@<TRIPOS>ATOM
      1 C          62.3241   90.1509   10.3646 C.ar    1  UNL1        0.2182
      2 N          61.1481   90.2946    9.4445 N.ar    1  UNL1       -0.2116
      3 C          60.7072   88.9199    9.0376 C.ar    1  UNL1        0.1185
      4 C          59.5997   88.4442    8.1447 C.ar    1  UNL1        0.0223
      5 C          59.3957   86.9752    7.9204 C.ar    1  UNL1        0.0017
      6 C          60.2991   85.9819    8.5890 C.ar    1  UNL1        0.0031
      7 C          61.4066   86.4575    9.4819 C.ar    1  UNL1        0.0361
      8 C          61.6106   87.9265    9.7062 C.ar    1  UNL1        0.1643
      9 O          62.6099   88.6873   10.5263 O.2     1  UNL1       -0.4378
     10 C          62.3100   85.4641   10.1505 C.ar    1  UNL1        0.0030
     11 C          63.1681   84.5545    9.3222 C.ar    1  UNL1        0.0001
     12 C          64.0716   83.5611    9.9908 C.ar    1  UNL1        0.0000
     13 C          64.1168   83.4773   11.4877 C.ar    1  UNL1        0.0000
     14 C          63.2586   84.3869   12.3161 C.ar    1  UNL1        0.0000
     15 C          62.3552   85.3803   11.6475 C.ar    1  UNL1        0.0001
     16 C          63.0813   91.2737   11.0096 C.3     1  UNL1        0.2065
     17 O          66.6272   92.7663   14.5023 O.2     1  UNL1       -0.2422
     18 C          65.5864   91.7880   14.0444 C.2     1  UNL1        0.3644
     19 C          65.2779   90.5776   14.8749 C.3     1  UNL1        0.2333
     20 C          64.2371   89.5993   14.4170 C.2     1  UNL1        0.3159
     21 N          63.5049   89.8313   13.1286 N.2     1  UNL1       -0.0039
     22 C          63.8135   91.0417   12.2980 C.2     1  UNL1        0.3581
     23 N          64.8542   92.0200   12.7559 N.am    1  UNL1        0.0289
     24 N          63.9286   88.3888   15.2476 N.pl3   1  UNL1       -0.1888
     25 C          63.1709   88.5352   16.5338 C.3     1  UNL1        0.2343
     26 C          62.8623   87.3249   17.3644 C.3     1  UNL1        0.1929
     27 O          63.3115   85.9682   16.9087 O.3     1  UNL1       -0.3449
     28 C          64.0692   85.8219   15.6225 C.3     1  UNL1        0.1929
     29 C          64.3778   87.0322   14.7919 C.3     1  UNL1        0.2343
@<TRIPOS>BOND
     1    17    18    2
     2    18    19    1
     3    19    20    1
     4    20    24    1
     5    24    25    1
     6    25    26    1
     7    26    27    1
     8    27    28    1
     9    28    29    1
    10    20    21    2
    11    21    22    1
    12    22    16    1
    13    16     1    1
    14     1     2   ar
    15     2     3   ar
    16     3     4   ar
    17     4     5   ar
    18     5     6   ar
    19     6     7   ar
    20     7    10    1
    21    10    11   ar
    22    11    12   ar
    23    12    13   ar
    24    13    14   ar
    25    14    15   ar
    26     7     8   ar
    27     8     9   ar
    28    22    23    2
    29    23    18    1
    30    29    24    1
    31     9     1   ar
    32     8     3   ar
    33    15    10   ar
@<TRIPOS>MOLECULE
*****
 29 33 0 0 0
SMALL
GASTEIGER

@<TRIPOS>ATOM
      1 C          62.9605   90.1901   12.0338 C.ar    1  UNL1        0.2182
      2 N          63.1144   90.1197   13.5242 N.ar    1  UNL1       -0.2116
      3 C          64.2533   91.0140   13.9155 C.ar    1  UNL1        0.1185
      4 C          64.8606   91.3414   15.2474 C.ar    1  UNL1        0.0223
      5 C          66.0179   92.2919   15.3307 C.ar    1  UNL1        0.0017
      6 C          66.5680   92.9151   14.0821 C.ar    1  UNL1        0.0031
      7 C          65.9607   92.5877   12.7502 C.ar    1  UNL1        0.0361
      8 C          64.8034   91.6372   12.6669 C.ar    1  UNL1        0.1643
      9 O          64.0044   91.1280   11.5040 O.2     1  UNL1       -0.4378
     10 C          66.5108   93.2109   11.5015 C.ar    1  UNL1        0.0030
     11 C          66.1663   94.6294   11.1567 C.ar    1  UNL1        0.0001
     12 C          66.7164   95.2526    9.9081 C.ar    1  UNL1        0.0000
     13 C          67.6110   94.4572    9.0043 C.ar    1  UNL1        0.0000
     14 C          67.9555   93.0387    9.3491 C.ar    1  UNL1        0.0000
     15 C          67.4054   92.4155   10.5977 C.ar    1  UNL1        0.0001
     16 C          61.9417   89.4523   11.2167 C.3     1  UNL1        0.2065
     17 O          62.0036   85.5262    7.8135 O.2     1  UNL1       -0.2422
     18 C          62.1633   86.0316    9.2168 C.2     1  UNL1        0.3644
     19 C          62.5138   85.0795   10.3215 C.3     1  UNL1        0.2333
     20 C          62.6736   85.5850   11.7247 C.2     1  UNL1        0.3159
     21 N          62.4829   87.0425   12.0232 N.2     1  UNL1       -0.0039
     22 C          62.1324   87.9947   10.9183 C.2     1  UNL1        0.3581
     23 N          61.9726   87.4893    9.5151 N.am    1  UNL1        0.0289
     24 N          63.0241   84.6328   12.8296 N.pl3   1  UNL1       -0.1888
     25 C          62.7260   83.1701   12.6818 C.3     1  UNL1        0.2343
     26 C          63.0765   82.2180   13.7865 C.3     1  UNL1        0.1929
     27 O          63.7250   82.7284   15.0390 O.3     1  UNL1       -0.3449
     28 C          64.0230   84.1911   15.1868 C.3     1  UNL1        0.1929
     29 C          63.6726   85.1432   14.0821 C.3     1  UNL1        0.2343
@<TRIPOS>BOND
     1    17    18    2
     2    18    19    1
     3    19    20    1
     4    20    24    1
     5    24    25    1
     6    25    26    1
     7    26    27    1
     8    27    28    1
     9    28    29    1
    10    20    21    2
    11    21    22    1
    12    22    16    1
    13    16     1    1
    14     1     2   ar
    15     2     3   ar
    16     3     4   ar
    17     4     5   ar
    18     5     6   ar
    19     6     7   ar
    20     7    10    1
    21    10    11   ar
    22    11    12   ar
    23    12    13   ar
    24    13    14   ar
    25    14    15   ar
    26     7     8   ar
    27     8     9   ar
    28    22    23    2
    29    23    18    1
    30    29    24    1
    31     9     1   ar
    32     8     3   ar
    33    15    10   ar
@<TRIPOS>MOLECULE
*****
 29 33 0 0 0
SMALL
GASTEIGER

@<TRIPOS>ATOM
      1 C          62.5763   90.6474   11.3601 C.ar    1  UNL1        0.2182
      2 N          62.7854   90.1990   12.7762 N.ar    1  UNL1       -0.2116
      3 C          64.0877   90.7685   13.2553 C.ar    1  UNL1        0.1185
      4 C          64.8080   90.6616   14.5667 C.ar    1  UNL1        0.0223
      5 C          66.1241   91.3552   14.7582 C.ar    1  UNL1        0.0017
      6 C          66.7200   92.1557   13.6382 C.ar    1  UNL1        0.0031
      7 C          65.9997   92.2625   12.3269 C.ar    1  UNL1        0.0361
      8 C          64.6836   91.5690   12.1354 C.ar    1  UNL1        0.1643
      9 O          63.7495   91.4941   10.9641 O.2     1  UNL1       -0.4378
     10 C          66.5956   93.0630   11.2069 C.ar    1  UNL1        0.0030
     11 C          67.5399   92.4125   10.2399 C.ar    1  UNL1        0.0001
     12 C          68.1357   93.2130    9.1200 C.ar    1  UNL1        0.0000
     13 C          67.7873   94.6639    8.9671 C.ar    1  UNL1        0.0000
     14 C          66.8430   95.3143    9.9341 C.ar    1  UNL1        0.0000
     15 C          66.2471   94.5139   11.0540 C.ar    1  UNL1        0.0001
     16 C          61.4006   90.3087   10.4925 C.3     1  UNL1        0.2065
     17 O          58.9362   86.8956    7.4465 O.2     1  UNL1       -0.2422
     18 C          59.9697   87.1941    8.4919 C.2     1  UNL1        0.3644
     19 C          60.8044   86.0847    9.0597 C.3     1  UNL1        0.2333
     20 C          61.8378   86.3833   10.1051 C.2     1  UNL1        0.3159
     21 N          62.0366   87.7912   10.5827 N.2     1  UNL1       -0.0039
     22 C          61.2018   88.9007   10.0149 C.2     1  UNL1        0.3581
     23 N          60.1684   88.6022    8.9695 N.am    1  UNL1        0.0289
     24 N          62.6726   85.2738   10.6729 N.pl3   1  UNL1       -0.1888
     25 C          63.3637   84.3099    9.7547 C.3     1  UNL1        0.2343
     26 C          64.1984   83.2004   10.3224 C.3     1  UNL1        0.1929
     27 O          64.3419   83.0549   11.8084 O.3     1  UNL1       -0.3449
     28 C          63.6508   84.0188   12.7267 C.3     1  UNL1        0.1929
     29 C          62.8161   85.1283   12.1589 C.3     1  UNL1        0.2343
@<TRIPOS>BOND
     1    17    18    2
     2    18    19    1
     3    19    20    1
     4    20    24    1
     5    24    25    1
     6    25    26    1
     7    26    27    1
     8    27    28    1
     9    28    29    1
    10    20    21    2
    11    21    22    1
    12    22    16    1
    13    16     1    1
    14     1     2   ar
    15     2     3   ar
    16     3     4   ar
    17     4     5   ar
    18     5     6   ar
    19     6     7   ar
    20     7    10    1
    21    10    11   ar
    22    11    12   ar
    23    12    13   ar
    24    13    14   ar
    25    14    15   ar
    26     7     8   ar
    27     8     9   ar
    28    22    23    2
    29    23    18    1
    30    29    24    1
    31     9     1   ar
    32     8     3   ar
    33    15    10   ar
@<TRIPOS>MOLECULE
*****
 29 33 0 0 0
SMALL
GASTEIGER

@<TRIPOS>ATOM
      1 C          62.2658   90.0875   10.2147 C.ar    1  UNL1        0.2182
      2 N          61.0817   90.2425    9.3070 N.ar    1  UNL1       -0.2116
      3 C          60.6299   88.8723    8.8963 C.ar    1  UNL1        0.1185
      4 C          59.5115   88.4075    8.0115 C.ar    1  UNL1        0.0223
      5 C          59.2980   86.9409    7.7805 C.ar    1  UNL1        0.0017
      6 C          60.2029   85.9391    8.4343 C.ar    1  UNL1        0.0031
      7 C          61.3214   86.4039    9.3191 C.ar    1  UNL1        0.0361
      8 C          61.5348   87.8705    9.5502 C.ar    1  UNL1        0.1643
      9 O          62.5459   88.6216   10.3649 O.2     1  UNL1       -0.4378
     10 C          62.2263   85.4021    9.9729 C.ar    1  UNL1        0.0030
     11 C          63.1467   84.5642    9.1359 C.ar    1  UNL1        0.0001
     12 C          64.0516   83.5625    9.7897 C.ar    1  UNL1        0.0000
     13 C          64.0362   83.3985   11.2806 C.ar    1  UNL1        0.0000
     14 C          63.1158   84.2364   12.1177 C.ar    1  UNL1        0.0000
     15 C          62.2108   85.2382   11.4639 C.ar    1  UNL1        0.0001
     16 C          63.0348   91.2026   10.8590 C.3     1  UNL1        0.2065
     17 O          62.4763   89.3812   15.6933 O.2     1  UNL1       -0.2422
     18 C          63.2786   90.1331   14.6730 C.2     1  UNL1        0.3644
     19 C          64.6038   90.7261   15.0495 C.3     1  UNL1        0.2333
     20 C          65.4061   91.4780   14.0292 C.2     1  UNL1        0.3159
     21 N          64.8831   91.6369   12.6324 N.2     1  UNL1       -0.0039
     22 C          63.5578   91.0438   12.2558 C.2     1  UNL1        0.3581
     23 N          62.7555   90.2919   13.2761 N.am    1  UNL1        0.0289
     24 N          66.7315   92.0711   14.4059 N.pl3   1  UNL1       -0.1888
     25 C          66.8323   92.9952   15.5831 C.3     1  UNL1        0.2343
     26 C          68.1575   93.5882   15.9598 C.3     1  UNL1        0.1929
     27 O          69.3820   93.2573   15.1591 O.3     1  UNL1       -0.3449
     28 C          69.2812   92.3332   13.9819 C.3     1  UNL1        0.1929
     29 C          67.9560   91.7401   13.6052 C.3     1  UNL1        0.2343
@<TRIPOS>BOND
     1    17    18    2
     2    18    19    1
     3    19    20    1
     4    20    24    1
     5    24    25    1
     6    25    26    1
     7    26    27    1
     8    27    28    1
     9    28    29    1
    10    20    21    2
    11    21    22    1
    12    22    16    1
    13    16     1    1
    14     1     2   ar
    15     2     3   ar
    16     3     4   ar
    17     4     5   ar
    18     5     6   ar
    19     6     7   ar
    20     7    10    1
    21    10    11   ar
    22    11    12   ar
    23    12    13   ar
    24    13    14   ar
    25    14    15   ar
    26     7     8   ar
    27     8     9   ar
    28    22    23    2
    29    23    18    1
    30    29    24    1
    31     9     1   ar
    32     8     3   ar
    33    15    10   ar
@<TRIPOS>MOLECULE
*****
 29 33 0 0 0
SMALL
GASTEIGER

@<TRIPOS>ATOM
      1 C          63.5864   88.8405   13.5693 C.ar    1  UNL1        0.2182
      2 N          64.1342   87.8408   14.5442 N.ar    1  UNL1       -0.2116
      3 C          63.9717   86.4742   13.9476 C.ar    1  UNL1        0.1185
      4 C          64.3302   85.1087   14.4543 C.ar    1  UNL1        0.0223
      5 C          64.0405   83.8982   13.6172 C.ar    1  UNL1        0.0017
      6 C          63.3922   84.0533   12.2734 C.ar    1  UNL1        0.0031
      7 C          63.0337   85.4188   11.7667 C.ar    1  UNL1        0.0361
      8 C          63.3234   86.6293   12.6038 C.ar    1  UNL1        0.1643
      9 O          63.0853   88.0917   12.3700 O.2     1  UNL1       -0.4378
     10 C          62.3854   85.5738   10.4229 C.ar    1  UNL1        0.0030
     11 C          63.0617   85.0349    9.1973 C.ar    1  UNL1        0.0001
     12 C          62.4134   85.1899    7.8535 C.ar    1  UNL1        0.0000
     13 C          61.0889   85.8839    7.7354 C.ar    1  UNL1        0.0000
     14 C          60.4127   86.4229    8.9610 C.ar    1  UNL1        0.0000
     15 C          61.0610   86.2678   10.3048 C.ar    1  UNL1        0.0001
     16 C          63.5466   90.3278   13.7600 C.3     1  UNL1        0.2065
     17 O          67.9571   91.8917   16.0188 O.2     1  UNL1       -0.2422
     18 C          67.0225   91.9058   14.8456 C.2     1  UNL1        0.3644
     19 C          67.3585   92.7158   13.6287 C.3     1  UNL1        0.2333
     20 C          66.4239   92.7298   12.4556 C.2     1  UNL1        0.3159
     21 N          65.1533   91.9338   12.4993 N.2     1  UNL1       -0.0039
     22 C          64.8172   91.1237   13.7163 C.2     1  UNL1        0.3581
     23 N          65.7518   91.1097   14.8895 N.am    1  UNL1        0.0289
     24 N          66.7599   93.5398   11.2386 N.pl3   1  UNL1       -0.1888
     25 C          67.5120   92.9110   10.1033 C.3     1  UNL1        0.2343
     26 C          67.8481   93.7210    8.8863 C.3     1  UNL1        0.1929
     27 O          67.4321   95.1598    8.8047 O.3     1  UNL1       -0.3449
     28 C          66.6800   95.7886    9.9400 C.3     1  UNL1        0.1929
     29 C          66.3439   94.9786   11.1570 C.3     1  UNL1        0.2343
@<TRIPOS>BOND
     1    17    18    2
     2    18    19    1
     3    19    20    1
     4    20    24    1
     5    24    25    1
     6    25    26    1
     7    26    27    1
     8    27    28    1
     9    28    29    1
    10    20    21    2
    11    21    22    1
    12    22    16    1
    13    16     1    1
    14     1     2   ar
    15     2     3   ar
    16     3     4   ar
    17     4     5   ar
    18     5     6   ar
    19     6     7   ar
    20     7    10    1
    21    10    11   ar
    22    11    12   ar
    23    12    13   ar
    24    13    14   ar
    25    14    15   ar
    26     7     8   ar
    27     8     9   ar
    28    22    23    2
    29    23    18    1
    30    29    24    1
    31     9     1   ar
    32     8     3   ar
    33    15    10   ar
@<TRIPOS>MOLECULE
*****
 29 33 0 0 0
SMALL
GASTEIGER

@<TRIPOS>ATOM
      1 C          62.2801   90.5794   10.5660 C.ar    1  UNL1        0.2182
      2 N          63.3159   91.6050   10.2120 N.ar    1  UNL1       -0.2116
      3 C          64.2768   91.7087   11.3592 C.ar    1  UNL1        0.1185
      4 C          65.4970   92.5544   11.5731 C.ar    1  UNL1        0.0223
      5 C          66.2753   92.4385   12.8501 C.ar    1  UNL1        0.0017
      6 C          65.8334   91.4769   13.9131 C.ar    1  UNL1        0.0031
      7 C          64.6132   90.6312   13.6992 C.ar    1  UNL1        0.0361
      8 C          63.8349   90.7471   12.4222 C.ar    1  UNL1        0.1643
      9 O          62.6009   90.0492   11.9320 O.2     1  UNL1       -0.4378
     10 C          64.1713   89.6697   14.7623 C.ar    1  UNL1        0.0030
     11 C          63.4504   90.1740   15.9771 C.ar    1  UNL1        0.0001
     12 C          63.0085   89.2125   17.0402 C.ar    1  UNL1        0.0000
     13 C          63.2875   87.7465   16.8884 C.ar    1  UNL1        0.0000
     14 C          64.0084   87.2421   15.6736 C.ar    1  UNL1        0.0000
     15 C          64.4503   88.2037   14.6105 C.ar    1  UNL1        0.0001
     16 C          61.1262   90.1580    9.7052 C.3     1  UNL1        0.2065
     17 O          58.7546   86.4827    6.9003 O.2     1  UNL1       -0.2422
     18 C          59.7681   86.8768    7.9336 C.2     1  UNL1        0.3644
     19 C          60.6092   85.8272    8.5976 C.3     1  UNL1        0.2333
     20 C          61.6226   86.2213    9.6309 C.2     1  UNL1        0.3159
     21 N          61.7950   87.6648   10.0001 N.2     1  UNL1       -0.0039
     22 C          60.9539   88.7145    9.3360 C.2     1  UNL1        0.3581
     23 N          59.9404   88.3204    8.3028 N.am    1  UNL1        0.0289
     24 N          62.4637   85.1717   10.2950 N.pl3   1  UNL1       -0.1888
     25 C          63.3134   84.2557    9.4650 C.3     1  UNL1        0.2343
     26 C          64.1545   83.2061   10.1290 C.3     1  UNL1        0.1929
     27 O          64.1459   83.0725   11.6230 O.3     1  UNL1       -0.3449
     28 C          63.2961   83.9885   12.4530 C.3     1  UNL1        0.1929
     29 C          62.4551   85.0381   11.7890 C.3     1  UNL1        0.2343
@<TRIPOS>BOND
     1    17    18    2
     2    18    19    1
     3    19    20    1
     4    20    24    1
     5    24    25    1
     6    25    26    1
     7    26    27    1
     8    27    28    1
     9    28    29    1
    10    20    21    2
    11    21    22    1
    12    22    16    1
    13    16     1    1
    14     1     2   ar
    15     2     3   ar
    16     3     4   ar
    17     4     5   ar
    18     5     6   ar
    19     6     7   ar
    20     7    10    1
    21    10    11   ar
    22    11    12   ar
    23    12    13   ar
    24    13    14   ar
    25    14    15   ar
    26     7     8   ar
    27     8     9   ar
    28    22    23    2
    29    23    18    1
    30    29    24    1
    31     9     1   ar
    32     8     3   ar
    33    15    10   ar
@<TRIPOS>MOLECULE
*****
 29 33 0 0 0
SMALL
GASTEIGER

@<TRIPOS>ATOM
      1 C          64.0801   88.4470   14.6420 C.ar    1  UNL1        0.2182
      2 N          63.7707   87.7985   15.9588 N.ar    1  UNL1       -0.2116
      3 C          63.4259   86.3621   15.6984 C.ar    1  UNL1        0.1185
      4 C          63.0368   85.2411   16.6159 C.ar    1  UNL1        0.0223
      5 C          62.7439   83.8808   16.0558 C.ar    1  UNL1        0.0017
      6 C          62.8401   83.6415   14.5781 C.ar    1  UNL1        0.0031
      7 C          63.2293   84.7625   13.6606 C.ar    1  UNL1        0.0361
      8 C          63.5222   86.1228   14.2207 C.ar    1  UNL1        0.1643
      9 O          63.9264   87.4114   13.5679 O.2     1  UNL1       -0.4378
     10 C          63.3255   84.5233   12.1829 C.ar    1  UNL1        0.0030
     11 C          64.1720   83.4016   11.6583 C.ar    1  UNL1        0.0001
     12 C          64.2682   83.1623   10.1807 C.ar    1  UNL1        0.0000
     13 C          63.5179   84.0447    9.2276 C.ar    1  UNL1        0.0000
     14 C          62.6715   85.1664    9.7522 C.ar    1  UNL1        0.0000
     15 C          62.5752   85.4057   11.2298 C.ar    1  UNL1        0.0001
     16 C          64.4739   89.8796   14.4357 C.3     1  UNL1        0.2065
     17 O          61.5470   90.5828   10.2003 O.2     1  UNL1       -0.2422
     18 C          62.7876   90.8861   10.9870 C.2     1  UNL1        0.3644
     19 C          63.8052   91.8443   10.4428 C.3     1  UNL1        0.2333
     20 C          65.0458   92.1476   11.2296 C.2     1  UNL1        0.3159
     21 N          65.2687   91.4927   12.5605 N.2     1  UNL1       -0.0039
     22 C          64.2510   90.5345   13.1048 C.2     1  UNL1        0.3581
     23 N          63.0104   90.2312   12.3180 N.am    1  UNL1        0.0289
     24 N          66.0635   93.1058   10.6854 N.pl3   1  UNL1       -0.1888
     25 C          67.2838   92.5860    9.9849 C.3     1  UNL1        0.2343
     26 C          68.3015   93.5441    9.4407 C.3     1  UNL1        0.1929
     27 O          68.0989   95.0221    9.5969 O.3     1  UNL1       -0.3449
     28 C          66.8786   95.5420   10.2973 C.3     1  UNL1        0.1929
     29 C          65.8609   94.5838   10.8415 C.3     1  UNL1        0.2343
@<TRIPOS>BOND
     1    17    18    2
     2    18    19    1
     3    19    20    1
     4    20    24    1
     5    24    25    1
     6    25    26    1
     7    26    27    1
     8    27    28    1
     9    28    29    1
    10    20    21    2
    11    21    22    1
    12    22    16    1
    13    16     1    1
    14     1     2   ar
    15     2     3   ar
    16     3     4   ar
    17     4     5   ar
    18     5     6   ar
    19     6     7   ar
    20     7    10    1
    21    10    11   ar
    22    11    12   ar
    23    12    13   ar
    24    13    14   ar
    25    14    15   ar
    26     7     8   ar
    27     8     9   ar
    28    22    23    2
    29    23    18    1
    30    29    24    1
    31     9     1   ar
    32     8     3   ar
    33    15    10   ar
