@<TRIPOS>MOLECULE
*****
 32 35 0 0 0
SMALL
GASTEIGER

@<TRIPOS>ATOM
      1 C          63.8623   87.8765   15.2524 C.2     1  UNL1        0.2534
      2 O          63.2035   88.3562   16.5117 O.2     1  UNL1       -0.2695
      3 N          64.6294   88.8382   14.3940 N.am    1  UNL1       -0.2965
      4 H          65.0618   88.5233   13.5675 H       1  UNL1        0.1501
      5 C          62.9456   80.8875   11.7974 C.3     1  UNL1        0.0537
      6 C          63.2197   81.9281   12.8424 C.ar    1  UNL1        0.0771
      7 N          63.5803   81.5129   14.2379 N.ar    1  UNL1       -0.1522
      8 N          63.8544   82.5535   15.2829 N.ar    1  UNL1       -0.1416
      9 C          63.7678   84.0094   14.9323 C.ar    1  UNL1        0.1333
     10 S          63.9822   85.2519   15.7448 S.2     1  UNL1       -0.0604
     11 C          63.7541   86.4351   14.8514 C.ar    1  UNL1        0.0971
     12 C          63.3987   85.9238   13.4868 C.ar    1  UNL1        0.0538
     13 N          63.0892   86.7641   12.2834 N.pl3   1  UNL1       -0.3564
     14 C          63.4072   84.4246   13.5368 C.ar    1  UNL1        0.0363
     15 C          63.1331   83.3840   12.4918 C.ar    1  UNL1       -0.0033
     16 C          62.7725   83.7992   11.0963 C.3     1  UNL1        0.0324
     17 H          63.1094   87.7461   12.3504 H       1  UNL1        0.1424
     18 H          62.8657   86.3336   11.4267 H       1  UNL1        0.1424
     19 C          64.7376   90.2795   14.7950 C.3     1  UNL1        0.1166
     20 C          65.1580   91.3086   13.7879 C.ar    1  UNL1       -0.0026
     21 C          64.5651   91.2957   12.4101 C.ar    1  UNL1       -0.0026
     22 C          64.9855   92.3248   11.4031 C.ar    1  UNL1       -0.0001
     23 C          65.9987   93.3669   11.7738 C.ar    1  UNL1        0.0037
     24 C          66.5916   93.3798   13.1516 C.ar    1  UNL1       -0.0001
     25 C          66.1712   92.3507   14.1586 C.ar    1  UNL1       -0.0026
     26 C          66.4191   94.3960   10.7667 C.ar    1  UNL1        0.0460
     27 C          65.9997   95.8262   10.9361 C.ar    1  UNL1        0.0054
     28 C          66.4201   96.8554    9.9290 C.ar    1  UNL1        0.0208
     29 C          67.2598   96.4543    8.7525 C.ar    1  UNL1        0.1013
     30 N          67.6791   95.0240    8.5832 N.ar    1  UNL1       -0.2165
     31 C          67.2588   93.9950    9.5903 C.ar    1  UNL1        0.2222
     32 F          67.6781   92.5647    9.4209 F       1  UNL1       -0.1832
@<TRIPOS>BOND
     1     5     6    1
     2     6     7   ar
     3     7     8   ar
     4     8     9   ar
     5     9    10   ar
     6    10    11   ar
     7    11     1    1
     8     1     2    2
     9     1     3   am
    10     3    19    1
    11    19    20    1
    12    20    21   ar
    13    21    22   ar
    14    22    23   ar
    15    23    26    1
    16    26    27   ar
    17    27    28   ar
    18    28    29   ar
    19    29    30   ar
    20    30    31   ar
    21    31    32    1
    22    23    24   ar
    23    24    25   ar
    24    11    12   ar
    25    12    13    1
    26    12    14   ar
    27    14    15   ar
    28    15    16    1
    29    15     6   ar
    30    14     9   ar
    31    25    20   ar
    32    31    26   ar
    33     3     4    1
    34    13    17    1
    35    13    18    1
@<TRIPOS>MOLECULE
*****
 32 35 0 0 0
SMALL
GASTEIGER

@<TRIPOS>ATOM
      1 C          63.9002   87.9440   15.1882 C.2     1  UNL1        0.2534
      2 O          63.3221   88.4272   16.4853 O.2     1  UNL1       -0.2695
      3 N          64.5971   88.9066   14.2729 N.am    1  UNL1       -0.2965
      4 H          64.9765   88.5895   13.4216 H       1  UNL1        0.1501
      5 C          62.8880   80.9170   11.8385 C.3     1  UNL1        0.0537
      6 C          63.1918   81.9692   12.8635 C.ar    1  UNL1        0.0771
      7 N          63.5935   81.5695   14.2523 N.ar    1  UNL1       -0.1522
      8 N          63.8973   82.6217   15.2773 N.ar    1  UNL1       -0.1416
      9 C          63.7994   84.0736   14.9135 C.ar    1  UNL1        0.1333
     10 S          64.0365   85.3251   15.7057 S.2     1  UNL1       -0.0604
     11 C          63.7814   86.4983   14.8064 C.ar    1  UNL1        0.0971
     12 C          63.3865   85.9719   13.4585 C.ar    1  UNL1        0.0538
     13 N          63.0411   86.7987   12.2556 N.pl3   1  UNL1       -0.3564
     14 C          63.3976   84.4733   13.5247 C.ar    1  UNL1        0.0363
     15 C          63.0938   83.4211   12.4997 C.ar    1  UNL1       -0.0033
     16 C          62.6921   83.8209   11.1108 C.3     1  UNL1        0.0324
     17 H          63.0626   87.7814   12.3111 H       1  UNL1        0.1424
     18 H          62.7930   86.3587   11.4106 H       1  UNL1        0.1424
     19 C          64.7159   90.3523   14.6547 C.3     1  UNL1        0.1166
     20 C          65.1775   91.3596   13.6435 C.ar    1  UNL1       -0.0026
     21 C          66.3861   92.2030   13.9228 C.ar    1  UNL1       -0.0026
     22 C          66.8476   93.2102   12.9116 C.ar    1  UNL1       -0.0001
     23 C          66.1006   93.3740   11.6212 C.ar    1  UNL1        0.0037
     24 C          64.8921   92.5306   11.3419 C.ar    1  UNL1       -0.0001
     25 C          64.4305   91.5234   12.3531 C.ar    1  UNL1       -0.0026
     26 C          66.5622   94.3813   10.6100 C.ar    1  UNL1        0.0460
     27 C          67.1469   93.9223    9.3072 C.ar    1  UNL1        0.0054
     28 C          67.6085   94.9296    8.2960 C.ar    1  UNL1        0.0208
     29 C          67.4853   96.3958    8.5878 C.ar    1  UNL1        0.1013
     30 N          66.9006   96.8547    9.8907 N.ar    1  UNL1       -0.2165
     31 C          66.4390   95.8475   10.9018 C.ar    1  UNL1        0.2222
     32 F          65.8543   96.3064   12.2047 F       1  UNL1       -0.1832
@<TRIPOS>BOND
     1     5     6    1
     2     6     7   ar
     3     7     8   ar
     4     8     9   ar
     5     9    10   ar
     6    10    11   ar
     7    11     1    1
     8     1     2    2
     9     1     3   am
    10     3    19    1
    11    19    20    1
    12    20    21   ar
    13    21    22   ar
    14    22    23   ar
    15    23    26    1
    16    26    27   ar
    17    27    28   ar
    18    28    29   ar
    19    29    30   ar
    20    30    31   ar
    21    31    32    1
    22    23    24   ar
    23    24    25   ar
    24    11    12   ar
    25    12    13    1
    26    12    14   ar
    27    14    15   ar
    28    15    16    1
    29    15     6   ar
    30    14     9   ar
    31    25    20   ar
    32    31    26   ar
    33     3     4    1
    34    13    17    1
    35    13    18    1
@<TRIPOS>MOLECULE
*****
 32 35 0 0 0
SMALL
GASTEIGER

@<TRIPOS>ATOM
      1 C          63.6400   86.7732   14.0922 C.2     1  UNL1        0.2534
      2 O          63.7422   86.8585   15.5863 O.2     1  UNL1       -0.2695
      3 N          63.6778   88.0241   13.2653 N.am    1  UNL1       -0.2965
      4 H          63.6107   87.9682   12.2847 H       1  UNL1        0.1501
      5 C          62.4455   79.3142   11.9570 C.3     1  UNL1        0.0537
      6 C          62.8045   80.7690   11.8888 C.ar    1  UNL1        0.0771
      7 N          63.2801   81.3643   10.5968 N.ar    1  UNL1       -0.1522
      8 N          63.6391   82.8191   10.5286 N.ar    1  UNL1       -0.1416
      9 C          63.5225   83.6786   11.7523 C.ar    1  UNL1        0.1333
     10 S          63.8026   85.1333   11.9876 S.2     1  UNL1       -0.0604
     11 C          63.5001   85.4370   13.4251 C.ar    1  UNL1        0.0971
     12 C          63.0330   84.1700   14.0782 C.ar    1  UNL1        0.0538
     13 N          62.6239   84.0167   15.5131 N.pl3   1  UNL1       -0.3564
     14 C          63.0469   83.0832   13.0443 C.ar    1  UNL1        0.0363
     15 C          62.6879   81.6284   13.1126 C.ar    1  UNL1       -0.0033
     16 C          62.2122   81.0331   14.4046 C.3     1  UNL1        0.0324
     17 H          62.6488   84.7933   16.1178 H       1  UNL1        0.1424
     18 H          62.3305   83.1395   15.8503 H       1  UNL1        0.1424
     19 C          63.8178   89.3602   13.9325 C.3     1  UNL1        0.1166
     20 C          64.4236   90.5116   13.1859 C.ar    1  UNL1       -0.0026
     21 C          63.8878   90.8972   11.8389 C.ar    1  UNL1       -0.0026
     22 C          64.4936   92.0485   11.0924 C.ar    1  UNL1       -0.0001
     23 C          65.6351   92.8143   11.6927 C.ar    1  UNL1        0.0037
     24 C          66.1709   92.4287   13.0396 C.ar    1  UNL1       -0.0001
     25 C          65.5651   91.2774   13.7862 C.ar    1  UNL1       -0.0026
     26 C          66.2409   93.9657   10.9461 C.ar    1  UNL1        0.0460
     27 C          65.8652   95.3729   11.3045 C.ar    1  UNL1        0.0054
     28 C          66.4710   96.5243   10.5578 C.ar    1  UNL1        0.0208
     29 C          67.4525   96.2683    9.4528 C.ar    1  UNL1        0.1013
     30 N          67.8283   94.8610    9.0944 N.ar    1  UNL1       -0.2165
     31 C          67.2225   93.7097    9.8411 C.ar    1  UNL1        0.2222
     32 F          67.5982   92.3024    9.4827 F       1  UNL1       -0.1832
@<TRIPOS>BOND
     1     5     6    1
     2     6     7   ar
     3     7     8   ar
     4     8     9   ar
     5     9    10   ar
     6    10    11   ar
     7    11     1    1
     8     1     2    2
     9     1     3   am
    10     3    19    1
    11    19    20    1
    12    20    21   ar
    13    21    22   ar
    14    22    23   ar
    15    23    26    1
    16    26    27   ar
    17    27    28   ar
    18    28    29   ar
    19    29    30   ar
    20    30    31   ar
    21    31    32    1
    22    23    24   ar
    23    24    25   ar
    24    11    12   ar
    25    12    13    1
    26    12    14   ar
    27    14    15   ar
    28    15    16    1
    29    15     6   ar
    30    14     9   ar
    31    25    20   ar
    32    31    26   ar
    33     3     4    1
    34    13    17    1
    35    13    18    1
@<TRIPOS>MOLECULE
*****
 32 35 0 0 0
SMALL
GASTEIGER

@<TRIPOS>ATOM
      1 C          63.9134   88.9672   15.0382 C.2     1  UNL1        0.2534
      2 O          62.8442   89.0805   16.0842 O.2     1  UNL1       -0.2695
      3 N          64.4356   87.6179   14.6425 N.am    1  UNL1       -0.2965
      4 H          65.1373   87.5435   13.9560 H       1  UNL1        0.1501
      5 C          66.0630   94.9306   10.4078 C.3     1  UNL1        0.0537
      6 C          65.9195   94.0533   11.6160 C.ar    1  UNL1        0.0771
      7 N          66.5798   94.4398   12.9062 N.ar    1  UNL1       -0.1522
      8 N          66.4363   93.5625   14.1144 N.ar    1  UNL1       -0.1416
      9 C          65.6324   92.2988   14.0324 C.ar    1  UNL1        0.1333
     10 S          65.3162   91.2426   15.0495 S.2     1  UNL1       -0.0604
     11 C          64.4604   90.2033   14.3879 C.ar    1  UNL1        0.0971
     12 C          64.2477   90.6173   12.9620 C.ar    1  UNL1        0.0538
     13 N          63.4506   89.8678   11.9359 N.pl3   1  UNL1       -0.3564
     14 C          64.9720   91.9123   12.7423 C.ar    1  UNL1        0.0363
     15 C          65.1156   92.7896   11.5341 C.ar    1  UNL1       -0.0033
     16 C          64.4552   92.4031   10.2439 C.3     1  UNL1        0.0324
     17 H          63.0093   89.0215   12.1772 H       1  UNL1        0.1424
     18 H          63.3688   90.2222   11.0210 H       1  UNL1        0.1424
     19 C          63.8886   86.3818   15.2928 C.3     1  UNL1        0.1166
     20 C          63.6894   85.1343   14.4840 C.ar    1  UNL1       -0.0026
     21 C          63.0967   85.2187   13.1087 C.ar    1  UNL1       -0.0026
     22 C          62.8976   83.9711   12.3001 C.ar    1  UNL1       -0.0001
     23 C          63.2913   82.6392   12.8667 C.ar    1  UNL1        0.0037
     24 C          63.8840   82.5548   14.2420 C.ar    1  UNL1       -0.0001
     25 C          64.0831   83.8023   15.0507 C.ar    1  UNL1       -0.0026
     26 C          63.0922   81.3917   12.0579 C.ar    1  UNL1        0.0460
     27 C          63.2877   81.4226   10.5711 C.ar    1  UNL1        0.0054
     28 C          63.0886   80.1750    9.7623 C.ar    1  UNL1        0.0208
     29 C          62.6940   78.8966   10.4404 C.ar    1  UNL1        0.1013
     30 N          62.4984   78.8657   11.9274 N.ar    1  UNL1       -0.2165
     31 C          62.6975   80.1133   12.7361 C.ar    1  UNL1        0.2222
     32 F          62.5020   80.0824   14.2230 F       1  UNL1       -0.1832
@<TRIPOS>BOND
     1     5     6    1
     2     6     7   ar
     3     7     8   ar
     4     8     9   ar
     5     9    10   ar
     6    10    11   ar
     7    11     1    1
     8     1     2    2
     9     1     3   am
    10     3    19    1
    11    19    20    1
    12    20    21   ar
    13    21    22   ar
    14    22    23   ar
    15    23    26    1
    16    26    27   ar
    17    27    28   ar
    18    28    29   ar
    19    29    30   ar
    20    30    31   ar
    21    31    32    1
    22    23    24   ar
    23    24    25   ar
    24    11    12   ar
    25    12    13    1
    26    12    14   ar
    27    14    15   ar
    28    15    16    1
    29    15     6   ar
    30    14     9   ar
    31    25    20   ar
    32    31    26   ar
    33     3     4    1
    34    13    17    1
    35    13    18    1
@<TRIPOS>MOLECULE
*****
 32 35 0 0 0
SMALL
GASTEIGER

@<TRIPOS>ATOM
      1 C          59.7520   88.5727    8.0154 C.2     1  UNL1        0.2534
      2 O          58.6529   87.6528    7.5728 O.2     1  UNL1       -0.2695
      3 N          60.0036   89.8519    7.2738 N.am    1  UNL1       -0.2965
      4 H          60.7249   90.4557    7.5643 H       1  UNL1        0.1501
      5 C          64.4474   88.1733   14.2938 C.3     1  UNL1        0.0537
      6 C          63.5424   87.7609   13.1708 C.ar    1  UNL1        0.0771
      7 N          63.2004   86.3135   12.9761 N.ar    1  UNL1       -0.1522
      8 N          62.2955   85.9011   11.8531 N.ar    1  UNL1       -0.1416
      9 C          61.7326   86.9361   10.9248 C.ar    1  UNL1        0.1333
     10 S          60.8209   86.8308    9.7384 S.2     1  UNL1       -0.0604
     11 C          60.5995   88.2132    9.1997 C.ar    1  UNL1        0.0971
     12 C          61.3743   89.1728   10.0533 C.ar    1  UNL1        0.0538
     13 N          61.4377   90.6605    9.8725 N.pl3   1  UNL1       -0.3564
     14 C          62.0746   88.3836   11.1195 C.ar    1  UNL1        0.0363
     15 C          62.9795   88.7959   12.2425 C.ar    1  UNL1       -0.0033
     16 C          63.3215   90.2434   12.4372 C.3     1  UNL1        0.0324
     17 H          60.9403   91.0889    9.1388 H       1  UNL1        0.1424
     18 H          61.9767   91.2086   10.4876 H       1  UNL1        0.1424
     19 C          59.1561   90.2114    6.0895 C.3     1  UNL1        0.1166
     20 C          59.7398   91.0159    4.9660 C.ar    1  UNL1       -0.0026
     21 C          61.2021   90.9106    4.6489 C.ar    1  UNL1       -0.0026
     22 C          61.7857   91.7151    3.5255 C.ar    1  UNL1       -0.0001
     23 C          60.9070   92.6250    2.7192 C.ar    1  UNL1        0.0037
     24 C          59.4447   92.7303    3.0363 C.ar    1  UNL1       -0.0001
     25 C          58.8611   91.9258    4.1597 C.ar    1  UNL1       -0.0026
     26 C          61.4907   93.4295    1.5957 C.ar    1  UNL1        0.0460
     27 C          62.1522   94.7453    1.8803 C.ar    1  UNL1        0.0054
     28 C          62.7359   95.5499    0.7568 C.ar    1  UNL1        0.0208
     29 C          62.6580   95.0386   -0.6512 C.ar    1  UNL1        0.1013
     30 N          61.9964   93.7227   -0.9357 N.ar    1  UNL1       -0.2165
     31 C          61.4127   92.9182    0.1877 C.ar    1  UNL1        0.2222
     32 F          60.7511   91.6024   -0.0968 F       1  UNL1       -0.1832
@<TRIPOS>BOND
     1     5     6    1
     2     6     7   ar
     3     7     8   ar
     4     8     9   ar
     5     9    10   ar
     6    10    11   ar
     7    11     1    1
     8     1     2    2
     9     1     3   am
    10     3    19    1
    11    19    20    1
    12    20    21   ar
    13    21    22   ar
    14    22    23   ar
    15    23    26    1
    16    26    27   ar
    17    27    28   ar
    18    28    29   ar
    19    29    30   ar
    20    30    31   ar
    21    31    32    1
    22    23    24   ar
    23    24    25   ar
    24    11    12   ar
    25    12    13    1
    26    12    14   ar
    27    14    15   ar
    28    15    16    1
    29    15     6   ar
    30    14     9   ar
    31    25    20   ar
    32    31    26   ar
    33     3     4    1
    34    13    17    1
    35    13    18    1
@<TRIPOS>MOLECULE
*****
 32 35 0 0 0
SMALL
GASTEIGER

@<TRIPOS>ATOM
      1 C          59.7869   88.8290    7.8787 C.2     1  UNL1        0.2534
      2 O          58.6404   87.9564    7.4615 O.2     1  UNL1       -0.2695
      3 N          60.0947   90.0807    7.1115 N.am    1  UNL1       -0.2965
      4 H          60.8472   90.6534    7.3854 H       1  UNL1        0.1501
      5 C          63.9299   85.4321   13.6163 C.3     1  UNL1        0.0537
      6 C          63.2862   86.4853   12.7641 C.ar    1  UNL1        0.0771
      7 N          63.4512   87.9352   13.1111 N.ar    1  UNL1       -0.1522
      8 N          62.8075   88.9884   12.2589 N.ar    1  UNL1       -0.1416
      9 C          61.9987   88.5917   11.0596 C.ar    1  UNL1        0.1333
     10 S          61.2521   89.4002   10.0403 S.2     1  UNL1       -0.0604
     11 C          60.6256   88.4500    9.0633 C.ar    1  UNL1        0.0971
     12 C          60.9850   87.0542    9.4787 C.ar    1  UNL1        0.0538
     13 N          60.5688   85.7924    8.7826 N.pl3   1  UNL1       -0.3564
     14 C          61.8336   87.1418   10.7125 C.ar    1  UNL1        0.0363
     15 C          62.4773   86.0886   11.5648 C.ar    1  UNL1       -0.0033
     16 C          62.3122   84.6387   11.2177 C.3     1  UNL1        0.0324
     17 H          60.0079   85.8378    7.9748 H       1  UNL1        0.1424
     18 H          60.8566   84.9187    9.1335 H       1  UNL1        0.1424
     19 C          59.2561   90.4597    5.9271 C.3     1  UNL1        0.1166
     20 C          59.8657   91.2263    4.7910 C.ar    1  UNL1       -0.0026
     21 C          61.3273   91.0809    4.4868 C.ar    1  UNL1       -0.0026
     22 C          61.9368   91.8475    3.3507 C.ar    1  UNL1       -0.0001
     23 C          61.0847   92.7596    2.5188 C.ar    1  UNL1        0.0037
     24 C          59.6231   92.9050    2.8229 C.ar    1  UNL1       -0.0001
     25 C          59.0136   92.1384    3.9590 C.ar    1  UNL1       -0.0026
     26 C          61.6943   93.5262    1.3827 C.ar    1  UNL1        0.0460
     27 C          62.3535   94.8490    1.6387 C.ar    1  UNL1        0.0054
     28 C          62.9631   95.6157    0.5026 C.ar    1  UNL1        0.0208
     29 C          62.9134   95.0594   -0.8896 C.ar    1  UNL1        0.1013
     30 N          62.2542   93.7366   -1.1456 N.ar    1  UNL1       -0.2165
     31 C          61.6446   92.9700   -0.0095 C.ar    1  UNL1        0.2222
     32 F          60.9854   91.6471   -0.2656 F       1  UNL1       -0.1832
@<TRIPOS>BOND
     1     5     6    1
     2     6     7   ar
     3     7     8   ar
     4     8     9   ar
     5     9    10   ar
     6    10    11   ar
     7    11     1    1
     8     1     2    2
     9     1     3   am
    10     3    19    1
    11    19    20    1
    12    20    21   ar
    13    21    22   ar
    14    22    23   ar
    15    23    26    1
    16    26    27   ar
    17    27    28   ar
    18    28    29   ar
    19    29    30   ar
    20    30    31   ar
    21    31    32    1
    22    23    24   ar
    23    24    25   ar
    24    11    12   ar
    25    12    13    1
    26    12    14   ar
    27    14    15   ar
    28    15    16    1
    29    15     6   ar
    30    14     9   ar
    31    25    20   ar
    32    31    26   ar
    33     3     4    1
    34    13    17    1
    35    13    18    1
@<TRIPOS>MOLECULE
*****
 32 35 0 0 0
SMALL
GASTEIGER

@<TRIPOS>ATOM
      1 C          59.1445   91.4900    4.7402 C.2     1  UNL1        0.2534
      2 O          57.7139   91.8316    5.0349 O.2     1  UNL1       -0.2695
      3 N          59.8536   90.4560    5.5636 N.am    1  UNL1       -0.2965
      4 H          60.7925   90.2318    5.3701 H       1  UNL1        0.1501
      5 C          64.1325   94.3937   -0.5807 C.3     1  UNL1        0.0537
      6 C          62.8666   94.1208    0.1763 C.ar    1  UNL1        0.0771
      7 N          61.5843   94.7744   -0.2462 N.ar    1  UNL1       -0.1522
      8 N          60.3184   94.5015    0.5108 N.ar    1  UNL1       -0.1416
      9 C          60.3348   93.5750    1.6903 C.ar    1  UNL1        0.1333
     10 S          59.2525   93.1183    2.6231 S.2     1  UNL1       -0.0604
     11 C          59.8659   92.1825    3.6221 C.ar    1  UNL1        0.0971
     12 C          61.3273   92.0608    3.3068 C.ar    1  UNL1        0.0538
     13 N          62.3239   91.2252    4.0541 N.pl3   1  UNL1       -0.3564
     14 C          61.6171   92.9214    2.1128 C.ar    1  UNL1        0.0363
     15 C          62.8830   93.1943    1.3558 C.ar    1  UNL1       -0.0033
     16 C          64.1653   92.5407    1.7784 C.3     1  UNL1        0.0324
     17 H          62.0358   90.6914    4.8296 H       1  UNL1        0.1424
     18 H          63.2662   91.2105    3.7692 H       1  UNL1        0.1424
     19 C          59.1321   89.7635    6.6816 C.3     1  UNL1        0.1166
     20 C          59.8540   88.7615    7.5330 C.ar    1  UNL1       -0.0026
     21 C          59.7184   87.2958    7.2443 C.ar    1  UNL1       -0.0026
     22 C          60.4403   86.2938    8.0957 C.ar    1  UNL1       -0.0001
     23 C          61.2976   86.7575    9.2358 C.ar    1  UNL1        0.0037
     24 C          61.4332   88.2232    9.5246 C.ar    1  UNL1       -0.0001
     25 C          60.7114   89.2252    8.6731 C.ar    1  UNL1       -0.0026
     26 C          62.0195   85.7554   10.0873 C.ar    1  UNL1        0.0460
     27 C          61.7716   85.7106   11.5660 C.ar    1  UNL1        0.0054
     28 C          62.4935   84.7085   12.4174 C.ar    1  UNL1        0.0208
     29 C          63.4632   83.7513   11.7901 C.ar    1  UNL1        0.1013
     30 N          63.7110   83.7962   10.3113 N.ar    1  UNL1       -0.2165
     31 C          62.9891   84.7982    9.4600 C.ar    1  UNL1        0.2222
     32 F          63.2370   84.8431    7.9812 F       1  UNL1       -0.1832
@<TRIPOS>BOND
     1     5     6    1
     2     6     7   ar
     3     7     8   ar
     4     8     9   ar
     5     9    10   ar
     6    10    11   ar
     7    11     1    1
     8     1     2    2
     9     1     3   am
    10     3    19    1
    11    19    20    1
    12    20    21   ar
    13    21    22   ar
    14    22    23   ar
    15    23    26    1
    16    26    27   ar
    17    27    28   ar
    18    28    29   ar
    19    29    30   ar
    20    30    31   ar
    21    31    32    1
    22    23    24   ar
    23    24    25   ar
    24    11    12   ar
    25    12    13    1
    26    12    14   ar
    27    14    15   ar
    28    15    16    1
    29    15     6   ar
    30    14     9   ar
    31    25    20   ar
    32    31    26   ar
    33     3     4    1
    34    13    17    1
    35    13    18    1
@<TRIPOS>MOLECULE
*****
 32 35 0 0 0
SMALL
GASTEIGER

@<TRIPOS>ATOM
      1 C          60.2242   88.3039    8.7467 C.2     1  UNL1        0.2534
      2 O          59.9269   89.4323    9.6892 O.2     1  UNL1       -0.2695
      3 N          59.6636   88.3212    7.3555 N.am    1  UNL1       -0.2965
      4 H          59.8587   87.5805    6.7369 H       1  UNL1        0.1501
      5 C          64.2257   82.6714   12.4732 C.3     1  UNL1        0.0537
      6 C          63.6856   83.5372   11.3738 C.ar    1  UNL1        0.0771
      7 N          64.0914   83.2843    9.9521 N.ar    1  UNL1       -0.1522
      8 N          63.5513   84.1501    8.8526 N.ar    1  UNL1       -0.1416
      9 C          62.6054   85.2687    9.1749 C.ar    1  UNL1        0.1333
     10 S          61.9148   86.2802    8.3089 S.2     1  UNL1       -0.0604
     11 C          61.0822   87.1582    9.1954 C.ar    1  UNL1        0.0971
     12 C          61.2581   86.6893   10.6093 C.ar    1  UNL1        0.0538
     13 N          60.6070   87.2838   11.8228 N.pl3   1  UNL1       -0.3564
     14 C          62.1996   85.5215   10.5966 C.ar    1  UNL1        0.0363
     15 C          62.7396   84.6558   11.6961 C.ar    1  UNL1       -0.0033
     16 C          62.3337   84.9087   13.1178 C.3     1  UNL1        0.0324
     17 H          60.0008   88.0538   11.7288 H       1  UNL1        0.1424
     18 H          60.7859   86.9040   12.7133 H       1  UNL1        0.1424
     19 C          58.8056   89.4668    6.9069 C.3     1  UNL1        0.1166
     20 C          59.2903   90.3891    5.8277 C.ar    1  UNL1       -0.0026
     21 C          58.3151   91.2571    5.0891 C.ar    1  UNL1       -0.0026
     22 C          58.7998   92.1794    4.0100 C.ar    1  UNL1       -0.0001
     23 C          60.2596   92.2336    3.6695 C.ar    1  UNL1        0.0037
     24 C          61.2348   91.3656    4.4080 C.ar    1  UNL1       -0.0001
     25 C          60.7501   90.4433    5.4872 C.ar    1  UNL1       -0.0026
     26 C          60.7443   93.1559    2.5903 C.ar    1  UNL1        0.0460
     27 C          60.1250   94.5125    2.4290 C.ar    1  UNL1        0.0054
     28 C          60.6096   95.4348    1.3499 C.ar    1  UNL1        0.0208
     29 C          61.7136   95.0004    0.4319 C.ar    1  UNL1        0.1013
     30 N          62.3329   93.6437    0.5932 N.ar    1  UNL1       -0.2165
     31 C          61.8483   92.7215    1.6724 C.ar    1  UNL1        0.2222
     32 F          62.4676   91.3648    1.8336 F       1  UNL1       -0.1832
@<TRIPOS>BOND
     1     5     6    1
     2     6     7   ar
     3     7     8   ar
     4     8     9   ar
     5     9    10   ar
     6    10    11   ar
     7    11     1    1
     8     1     2    2
     9     1     3   am
    10     3    19    1
    11    19    20    1
    12    20    21   ar
    13    21    22   ar
    14    22    23   ar
    15    23    26    1
    16    26    27   ar
    17    27    28   ar
    18    28    29   ar
    19    29    30   ar
    20    30    31   ar
    21    31    32    1
    22    23    24   ar
    23    24    25   ar
    24    11    12   ar
    25    12    13    1
    26    12    14   ar
    27    14    15   ar
    28    15    16    1
    29    15     6   ar
    30    14     9   ar
    31    25    20   ar
    32    31    26   ar
    33     3     4    1
    34    13    17    1
    35    13    18    1
