@<TRIPOS>MOLECULE
*****
 42 44 0 0 0
SMALL
GASTEIGER

@<TRIPOS>ATOM
      1 C          61.8658   86.1514    9.7938 C.3     1  UNL1        0.0920
      2 C          60.7269   85.9913    8.8308 C.3     1  UNL1        0.2582
      3 S          59.7641   87.1208    8.6133 S.O     1  UNL1        0.0319
      4 O          58.6253   86.9607    7.6504 O.co2   1  UNL1       -0.6812
      5 C          59.9404   88.4105    9.3589 C.3     1  UNL1        0.2736
      6 C          61.0792   88.5706   10.3218 C.3     1  UNL1        0.1416
      7 C          62.0419   87.4410   10.5393 C.3     1  UNL1        0.1353
      8 O          63.1809   87.6012   11.5023 O.3     1  UNL1       -0.3827
      9 H          63.1495   88.4873   11.8957 H       1  UNL1        0.2104
     10 N          61.2554   89.8603   11.0673 N.3     1  UNL1       -0.2887
     11 H          61.6607   89.6238   11.9730 H       1  UNL1        0.1237
     12 C          62.1027   90.9530   10.4858 C.3     1  UNL1        0.0958
     13 C          63.3664   91.3707   11.1774 C.ar    1  UNL1       -0.0067
     14 C          63.6154   90.9587   12.5980 C.ar    1  UNL1       -0.0029
     15 C          64.8791   91.3764   13.2896 C.ar    1  UNL1       -0.0006
     16 C          65.8940   92.2063   12.5606 C.ar    1  UNL1       -0.0043
     17 C          65.6451   92.6183   11.1399 C.ar    1  UNL1       -0.0231
     18 C          64.3812   92.2005   10.4483 C.ar    1  UNL1       -0.0072
     19 C          66.6599   93.4481   10.4109 C.3     1  UNL1        0.0189
     20 C          67.5123   92.2301   10.2111 C.3     1  UNL1        0.0044
     21 C          65.8075   94.6661   10.6106 C.3     1  UNL1        0.0044
     22 C          67.6747   94.2779    9.6818 C.3     1  UNL1        0.0044
     23 C          62.8285   85.0219   10.0113 C.3     1  UNL1        0.0342
     24 C          62.3933   83.9432   13.8056 C.ar    1  UNL1        0.1535
     25 C          62.5072   84.8002   12.5799 C.ar    1  UNL1        0.0341
     26 C          62.7146   84.1648   11.2371 C.ar    1  UNL1       -0.0166
     27 C          62.8080   82.6723   11.1200 C.ar    1  UNL1        0.0268
     28 C          62.6940   81.8153   12.3457 C.ar    1  UNL1        0.1556
     29 F          62.7874   80.3227   12.2287 F       1  UNL1       -0.2028
     30 C          62.4867   82.4508   13.6886 C.ar    1  UNL1        0.1037
     31 N          62.3727   81.5937   14.9144 N.pl3   1  UNL1       -0.3529
     32 H          62.4340   80.6141   14.8375 H       1  UNL1        0.1425
     33 H          62.2366   82.0107   15.7957 H       1  UNL1        0.1425
     34 O          62.1859   84.5787   15.1485 O.3     1  UNL1       -0.4665
     35 C          63.3139   85.3092   15.8148 C.3     1  UNL1        0.2891
     36 C          64.6880   85.2754   15.2140 C.3     1  UNL1        0.4366
     37 F          66.0620   85.2416   14.6133 F       1  UNL1       -0.1663
     38 F          64.5377   86.7062   14.7897 F       1  UNL1       -0.1663
     39 F          64.8383   83.8446   15.6383 F       1  UNL1       -0.1663
     40 C          63.0679   86.0734   17.0818 C.3     1  UNL1        0.1945
     41 C          63.0715   88.6648   16.8944 C.3     1  UNL1        0.1743
     42 O          62.3215   87.3740   17.0403 O.3     1  UNL1       -0.3469
@<TRIPOS>UNITY_ATOM_ATTR
3 1
charge 1
4 1
charge -1
@<TRIPOS>BOND
     1    41    42    1
     2    42    40    1
     3    35    40    1
     4    35    34    1
     5    34    24    1
     6    24    25   ar
     7    25    26   ar
     8    26    23    1
     9     1    23    1
    10     1     2    1
    11     2     3    1
    12     3     4    2
    13     3     5    1
    14     5     6    1
    15     6    10    1
    16    10    12    1
    17    12    13    1
    18    13    14   ar
    19    14    15   ar
    20    15    16   ar
    21    16    17   ar
    22    17    19    1
    23    19    20    1
    24    19    21    1
    25    19    22    1
    26    17    18   ar
    27     6     7    1
    28     7     8    1
    29    26    27   ar
    30    27    28   ar
    31    28    29    1
    32    28    30   ar
    33    30    31    1
    34    35    36    1
    35    36    37    1
    36    36    38    1
    37    36    39    1
    38    30    24   ar
    39     7     1    1
    40    18    13   ar
    41    10    11    1
    42     8     9    1
    43    31    32    1
    44    31    33    1
@<TRIPOS>MOLECULE
*****
 42 44 0 0 0
SMALL
GASTEIGER

@<TRIPOS>ATOM
      1 C          61.3841   89.4510   10.6200 C.3     1  UNL1        0.0920
      2 C          60.3664   89.7296    9.5538 C.3     1  UNL1        0.2582
      3 S          60.0778   88.6975    8.5044 S.O     1  UNL1        0.0319
      4 O          59.0601   88.9761    7.4383 O.co2   1  UNL1       -0.6812
      5 C          60.8069   87.3867    8.5211 C.3     1  UNL1        0.2736
      6 C          61.8246   87.1081    9.5873 C.3     1  UNL1        0.1416
      7 C          62.1132   88.1402   10.6367 C.3     1  UNL1        0.1353
      8 O          63.1309   87.8616   11.7029 O.3     1  UNL1       -0.3827
      9 H          63.5053   86.9768   11.5692 H       1  UNL1        0.2104
     10 N          62.5537   85.7972    9.6040 N.3     1  UNL1       -0.2887
     11 H          63.4965   85.9890    9.9427 H       1  UNL1        0.1237
     12 C          62.0245   84.6551   10.4198 C.3     1  UNL1        0.0958
     13 C          62.7896   84.1693   11.6151 C.ar    1  UNL1       -0.0067
     14 C          63.5847   82.9001   11.5315 C.ar    1  UNL1       -0.0029
     15 C          64.3498   82.4144   12.7268 C.ar    1  UNL1       -0.0006
     16 C          64.3199   83.1979   14.0056 C.ar    1  UNL1       -0.0043
     17 C          63.5248   84.4671   14.0891 C.ar    1  UNL1       -0.0231
     18 C          62.7597   84.9528   12.8938 C.ar    1  UNL1       -0.0072
     19 C          63.4949   85.2506   15.3679 C.3     1  UNL1        0.0189
     20 C          62.3738   84.3893   15.8693 C.3     1  UNL1        0.0044
     21 C          64.6160   86.1118   14.8665 C.3     1  UNL1        0.0044
     22 C          63.4649   86.0340   16.6466 C.3     1  UNL1        0.0044
     23 C          61.6727   90.4832   11.6695 C.3     1  UNL1        0.0342
     24 C          65.1984   91.3226   13.2867 C.ar    1  UNL1        0.1535
     25 C          63.8057   90.7908   13.1207 C.ar    1  UNL1        0.0341
     26 C          63.0655   91.0149   11.8354 C.ar    1  UNL1       -0.0166
     27 C          63.7181   91.7707   10.7161 C.ar    1  UNL1        0.0268
     28 C          65.1108   92.3025   10.8821 C.ar    1  UNL1        0.1556
     29 F          65.7634   93.0583    9.7628 F       1  UNL1       -0.2028
     30 C          65.8509   92.0784   12.1674 C.ar    1  UNL1        0.1037
     31 N          67.2437   92.6101   12.3333 N.pl3   1  UNL1       -0.3529
     32 H          67.6720   93.1062   11.5987 H       1  UNL1        0.1425
     33 H          67.7295   92.4631   13.1769 H       1  UNL1        0.1425
     34 O          65.9385   91.0985   14.5720 O.3     1  UNL1       -0.4665
     35 C          65.9572   92.1684   15.6231 C.3     1  UNL1        0.2891
     36 C          67.1234   93.1072   15.7171 C.3     1  UNL1        0.4366
     37 F          68.2895   94.0459   15.8112 F       1  UNL1       -0.1663
     38 F          66.4430   94.0476   14.7671 F       1  UNL1       -0.1663
     39 F          67.8038   92.1667   16.6671 F       1  UNL1       -0.1663
     40 C          64.8097   92.2996   16.5802 C.3     1  UNL1        0.1945
     41 C          63.3775   90.1323   16.6231 C.3     1  UNL1        0.1743
     42 O          63.5169   91.5910   16.3028 O.3     1  UNL1       -0.3469
@<TRIPOS>UNITY_ATOM_ATTR
3 1
charge 1
4 1
charge -1
@<TRIPOS>BOND
     1    41    42    1
     2    42    40    1
     3    35    40    1
     4    35    34    1
     5    34    24    1
     6    24    25   ar
     7    25    26   ar
     8    26    23    1
     9     1    23    1
    10     1     2    1
    11     2     3    1
    12     3     4    2
    13     3     5    1
    14     5     6    1
    15     6    10    1
    16    10    12    1
    17    12    13    1
    18    13    14   ar
    19    14    15   ar
    20    15    16   ar
    21    16    17   ar
    22    17    19    1
    23    19    20    1
    24    19    21    1
    25    19    22    1
    26    17    18   ar
    27     6     7    1
    28     7     8    1
    29    26    27   ar
    30    27    28   ar
    31    28    29    1
    32    28    30   ar
    33    30    31    1
    34    35    36    1
    35    36    37    1
    36    36    38    1
    37    36    39    1
    38    30    24   ar
    39     7     1    1
    40    18    13   ar
    41    10    11    1
    42     8     9    1
    43    31    32    1
    44    31    33    1
@<TRIPOS>MOLECULE
*****
 42 44 0 0 0
SMALL
GASTEIGER

@<TRIPOS>ATOM
      1 C          61.7870   89.9440   10.6384 C.3     1  UNL1        0.0920
      2 C          60.6069   90.3305   11.4798 C.3     1  UNL1        0.2582
      3 S          59.5752   89.3035   11.8417 S.O     1  UNL1        0.0319
      4 O          58.3952   89.6899   12.6831 O.co2   1  UNL1       -0.6812
      5 C          59.7237   87.8899   11.3620 C.3     1  UNL1        0.2736
      6 C          60.9038   87.5035   10.5206 C.3     1  UNL1        0.1416
      7 C          61.9355   88.5306   10.1588 C.3     1  UNL1        0.1353
      8 O          63.1156   88.1441    9.3173 O.3     1  UNL1       -0.3827
      9 H          63.0591   87.2017    9.0945 H       1  UNL1        0.2104
     10 N          61.0523   86.0900   10.0410 N.3     1  UNL1       -0.2887
     11 H          60.6170   86.0444    9.1197 H       1  UNL1        0.1237
     12 C          62.4176   85.4836    9.9052 C.3     1  UNL1        0.0958
     13 C          63.0126   84.7127   11.0461 C.ar    1  UNL1       -0.0067
     14 C          63.6590   83.3824   10.7962 C.ar    1  UNL1       -0.0029
     15 C          64.2541   82.6116   11.9370 C.ar    1  UNL1       -0.0006
     16 C          64.2028   83.1710   13.3279 C.ar    1  UNL1       -0.0043
     17 C          63.5564   84.5013   13.5778 C.ar    1  UNL1       -0.0231
     18 C          62.9613   85.2722   12.4369 C.ar    1  UNL1       -0.0072
     19 C          63.5051   85.0608   14.9686 C.3     1  UNL1        0.0189
     20 C          62.4832   84.0296   15.3457 C.3     1  UNL1        0.0044
     21 C          64.5270   86.0920   14.5915 C.3     1  UNL1        0.0044
     22 C          63.4538   85.6202   16.3594 C.3     1  UNL1        0.0044
     23 C          62.8187   90.9711   10.2766 C.3     1  UNL1        0.0342
     24 C          66.0812   92.6087   11.8335 C.ar    1  UNL1        0.1535
     25 C          65.0155   92.2359   10.8460 C.ar    1  UNL1        0.0341
     26 C          63.8844   91.3439   11.2642 C.ar    1  UNL1       -0.0166
     27 C          63.8191   90.8245   12.6699 C.ar    1  UNL1        0.0268
     28 C          64.8848   91.1973   13.6574 C.ar    1  UNL1        0.1556
     29 F          64.8195   90.6780   15.0631 F       1  UNL1       -0.2028
     30 C          66.0158   92.0894   13.2392 C.ar    1  UNL1        0.1037
     31 N          67.0816   92.4622   14.2268 N.pl3   1  UNL1       -0.3529
     32 H          67.0387   92.1213   15.1494 H       1  UNL1        0.1425
     33 H          67.8240   93.0477   13.9524 H       1  UNL1        0.1425
     34 O          67.2123   93.5008   11.4153 O.3     1  UNL1       -0.4665
     35 C          67.3700   93.8865    9.9744 C.3     1  UNL1        0.2891
     36 C          68.2206   93.0518    9.0634 C.3     1  UNL1        0.4366
     37 F          69.0712   92.2172    8.1524 F       1  UNL1       -0.1663
     38 F          67.8982   93.9694    7.9215 F       1  UNL1       -0.1663
     39 F          68.5431   92.1342   10.2053 F       1  UNL1       -0.1663
     40 C          66.6772   95.1067    9.4444 C.3     1  UNL1        0.1945
     41 C          65.9934   96.8541   11.2414 C.3     1  UNL1        0.1743
     42 O          65.6165   95.7818   10.2626 O.3     1  UNL1       -0.3469
@<TRIPOS>UNITY_ATOM_ATTR
3 1
charge 1
4 1
charge -1
@<TRIPOS>BOND
     1    41    42    1
     2    42    40    1
     3    35    40    1
     4    35    34    1
     5    34    24    1
     6    24    25   ar
     7    25    26   ar
     8    26    23    1
     9     1    23    1
    10     1     2    1
    11     2     3    1
    12     3     4    2
    13     3     5    1
    14     5     6    1
    15     6    10    1
    16    10    12    1
    17    12    13    1
    18    13    14   ar
    19    14    15   ar
    20    15    16   ar
    21    16    17   ar
    22    17    19    1
    23    19    20    1
    24    19    21    1
    25    19    22    1
    26    17    18   ar
    27     6     7    1
    28     7     8    1
    29    26    27   ar
    30    27    28   ar
    31    28    29    1
    32    28    30   ar
    33    30    31    1
    34    35    36    1
    35    36    37    1
    36    36    38    1
    37    36    39    1
    38    30    24   ar
    39     7     1    1
    40    18    13   ar
    41    10    11    1
    42     8     9    1
    43    31    32    1
    44    31    33    1
@<TRIPOS>MOLECULE
*****
 42 44 0 0 0
SMALL
GASTEIGER

@<TRIPOS>ATOM
      1 C          63.4349   83.6841   11.5864 C.3     1  UNL1        0.0920
      2 C          63.2364   82.2045   11.7336 C.3     1  UNL1        0.2582
      3 S          62.8862   81.6243   13.0717 S.O     1  UNL1        0.0319
      4 O          62.6877   80.1448   13.2190 O.co2   1  UNL1       -0.6812
      5 C          62.7344   82.5236   14.2627 C.3     1  UNL1        0.2736
      6 C          62.9328   84.0031   14.1154 C.3     1  UNL1        0.1416
      7 C          63.2831   84.5833   12.7772 C.3     1  UNL1        0.1353
      8 O          63.4815   86.0629   12.6300 O.3     1  UNL1       -0.3827
      9 H          63.3476   86.4941   13.4885 H       1  UNL1        0.2104
     10 N          62.7810   84.9024   15.3063 N.3     1  UNL1       -0.2887
     11 H          62.5336   84.3061   16.0960 H       1  UNL1        0.1237
     12 C          63.9305   85.7568   15.7523 C.3     1  UNL1        0.0958
     13 C          63.7664   87.2447   15.8472 C.ar    1  UNL1       -0.0067
     14 C          63.1236   87.8527   17.0584 C.ar    1  UNL1       -0.0029
     15 C          62.9596   89.3407   17.1532 C.ar    1  UNL1       -0.0006
     16 C          63.4384   90.2207   16.0368 C.ar    1  UNL1       -0.0043
     17 C          64.0813   89.6127   14.8256 C.ar    1  UNL1       -0.0231
     18 C          64.2453   88.1247   14.7308 C.ar    1  UNL1       -0.0072
     19 C          64.5601   90.4926   13.7092 C.3     1  UNL1        0.0189
     20 C          65.5677   91.1135   14.6307 C.3     1  UNL1        0.0044
     21 C          63.5525   89.8718   12.7877 C.3     1  UNL1        0.0044
     22 C          65.0389   91.3726   12.5928 C.3     1  UNL1        0.0044
     23 C          63.7852   84.2643   10.2482 C.3     1  UNL1        0.0342
     24 C          60.6273   86.3516    9.0560 C.ar    1  UNL1        0.1535
     25 C          61.7049   85.7889    9.9347 C.ar    1  UNL1        0.0341
     26 C          62.7075   84.8271    9.3694 C.ar    1  UNL1       -0.0166
     27 C          62.6327   84.4280    7.9255 C.ar    1  UNL1        0.0268
     28 C          61.5551   84.9907    7.0468 C.ar    1  UNL1        0.1556
     29 F          61.4801   84.5916    5.6027 F       1  UNL1       -0.2028
     30 C          60.5524   85.9525    7.6121 C.ar    1  UNL1        0.1037
     31 N          59.4748   86.5153    6.7333 N.pl3   1  UNL1       -0.3529
     32 H          59.4256   86.2533    5.7856 H       1  UNL1        0.1425
     33 H          58.8167   87.1465    7.1043 H       1  UNL1        0.1425
     34 O          59.6246   87.3134    9.6213 O.3     1  UNL1       -0.4665
     35 C          59.9467   88.7766    9.6932 C.3     1  UNL1        0.2891
     36 C          60.1017   89.4459   11.0267 C.3     1  UNL1        0.4366
     37 F          60.2567   90.1150   12.3602 F       1  UNL1       -0.1663
     38 F          60.8377   90.5777   10.3732 F       1  UNL1       -0.1663
     39 F          59.3658   88.3140   11.6803 F       1  UNL1       -0.1663
     40 C          60.1139   89.5707    8.4317 C.3     1  UNL1        0.1945
     41 C          59.3978   90.0884    5.9884 C.3     1  UNL1        0.1743
     42 O          59.2660   89.2621    7.2333 O.3     1  UNL1       -0.3469
@<TRIPOS>UNITY_ATOM_ATTR
3 1
charge 1
4 1
charge -1
@<TRIPOS>BOND
     1    41    42    1
     2    42    40    1
     3    35    40    1
     4    35    34    1
     5    34    24    1
     6    24    25   ar
     7    25    26   ar
     8    26    23    1
     9     1    23    1
    10     1     2    1
    11     2     3    1
    12     3     4    2
    13     3     5    1
    14     5     6    1
    15     6    10    1
    16    10    12    1
    17    12    13    1
    18    13    14   ar
    19    14    15   ar
    20    15    16   ar
    21    16    17   ar
    22    17    19    1
    23    19    20    1
    24    19    21    1
    25    19    22    1
    26    17    18   ar
    27     6     7    1
    28     7     8    1
    29    26    27   ar
    30    27    28   ar
    31    28    29    1
    32    28    30   ar
    33    30    31    1
    34    35    36    1
    35    36    37    1
    36    36    38    1
    37    36    39    1
    38    30    24   ar
    39     7     1    1
    40    18    13   ar
    41    10    11    1
    42     8     9    1
    43    31    32    1
    44    31    33    1
@<TRIPOS>MOLECULE
*****
 42 44 0 0 0
SMALL
GASTEIGER

@<TRIPOS>ATOM
      1 C          61.7568   90.0273   10.6417 C.3     1  UNL1        0.0920
      2 C          60.5674   90.3574   11.4940 C.3     1  UNL1        0.2582
      3 S          59.5570   89.2962   11.8148 S.O     1  UNL1        0.0319
      4 O          58.3676   89.6263   12.6671 O.co2   1  UNL1       -0.6812
      5 C          59.7360   87.9049   11.2834 C.3     1  UNL1        0.2736
      6 C          60.9254   87.5749   10.4312 C.3     1  UNL1        0.1416
      7 C          61.9358   88.6361   10.1103 C.3     1  UNL1        0.1353
      8 O          63.1253   88.3060    9.2580 O.3     1  UNL1       -0.3827
      9 H          63.0890   87.3716    9.0002 H       1  UNL1        0.2104
     10 N          61.1045   86.1836    9.8998 N.3     1  UNL1       -0.2887
     11 H          60.9553   86.2319    8.8919 H       1  UNL1        0.1237
     12 C          62.4019   85.4612   10.1113 C.3     1  UNL1        0.0958
     13 C          62.6889   84.8053   11.4294 C.ar    1  UNL1       -0.0067
     14 C          63.2420   85.6143   12.5650 C.ar    1  UNL1       -0.0029
     15 C          63.5290   84.9584   13.8831 C.ar    1  UNL1       -0.0006
     16 C          63.2629   83.4934   14.0656 C.ar    1  UNL1       -0.0043
     17 C          62.7098   82.6845   12.9300 C.ar    1  UNL1       -0.0231
     18 C          62.4228   83.3404   11.6118 C.ar    1  UNL1       -0.0072
     19 C          62.4438   81.2196   13.1124 C.3     1  UNL1        0.0189
     20 C          63.1094   80.9351   11.7986 C.3     1  UNL1        0.0044
     21 C          61.7782   81.5041   14.4261 C.3     1  UNL1        0.0044
     22 C          62.1777   79.7547   13.2948 C.3     1  UNL1        0.0044
     23 C          62.7672   91.0885   10.3208 C.3     1  UNL1        0.0342
     24 C          66.0966   92.6026   11.8611 C.ar    1  UNL1        0.1535
     25 C          64.9966   92.2958   10.8887 C.ar    1  UNL1        0.0341
     26 C          63.8673   91.3953   11.2933 C.ar    1  UNL1       -0.0166
     27 C          63.8381   90.8015   12.6705 C.ar    1  UNL1        0.0268
     28 C          64.9381   91.1083   13.6429 C.ar    1  UNL1        0.1556
     29 F          64.9090   90.5145   15.0201 F       1  UNL1       -0.2028
     30 C          66.0674   92.0089   13.2382 C.ar    1  UNL1        0.1037
     31 N          67.1675   92.3156   14.2108 N.pl3   1  UNL1       -0.3529
     32 H          67.1483   91.9259   15.1147 H       1  UNL1        0.1425
     33 H          67.9087   92.9067   13.9452 H       1  UNL1        0.1425
     34 O          67.2259   93.5032   11.4564 O.3     1  UNL1       -0.4665
     35 C          67.3990   93.8887   10.0172 C.3     1  UNL1        0.2891
     36 C          68.2471   93.0455    9.1117 C.3     1  UNL1        0.4366
     37 F          69.0951   92.2024    8.2062 F       1  UNL1       -0.1663
     38 F          67.8356   93.8886    7.9413 F       1  UNL1       -0.1663
     39 F          68.6585   92.2024   10.2821 F       1  UNL1       -0.1663
     40 C          66.7240   95.1173    9.4835 C.3     1  UNL1        0.1945
     41 C          66.0706   96.8154   11.3381 C.3     1  UNL1        0.1743
     42 O          65.6724   95.8095   10.2990 O.3     1  UNL1       -0.3469
@<TRIPOS>UNITY_ATOM_ATTR
3 1
charge 1
4 1
charge -1
@<TRIPOS>BOND
     1    41    42    1
     2    42    40    1
     3    35    40    1
     4    35    34    1
     5    34    24    1
     6    24    25   ar
     7    25    26   ar
     8    26    23    1
     9     1    23    1
    10     1     2    1
    11     2     3    1
    12     3     4    2
    13     3     5    1
    14     5     6    1
    15     6    10    1
    16    10    12    1
    17    12    13    1
    18    13    14   ar
    19    14    15   ar
    20    15    16   ar
    21    16    17   ar
    22    17    19    1
    23    19    20    1
    24    19    21    1
    25    19    22    1
    26    17    18   ar
    27     6     7    1
    28     7     8    1
    29    26    27   ar
    30    27    28   ar
    31    28    29    1
    32    28    30   ar
    33    30    31    1
    34    35    36    1
    35    36    37    1
    36    36    38    1
    37    36    39    1
    38    30    24   ar
    39     7     1    1
    40    18    13   ar
    41    10    11    1
    42     8     9    1
    43    31    32    1
    44    31    33    1
@<TRIPOS>MOLECULE
*****
 42 44 0 0 0
SMALL
GASTEIGER

@<TRIPOS>ATOM
      1 C          64.3480   90.8498   14.8262 C.3     1  UNL1        0.0920
      2 C          65.6742   91.5503   14.8503 C.3     1  UNL1        0.2582
      3 S          66.1711   92.2577   13.6244 S.O     1  UNL1        0.0319
      4 O          67.4972   92.9582   13.6484 O.co2   1  UNL1       -0.6812
      5 C          65.3418   92.2644   12.3745 C.3     1  UNL1        0.2736
      6 C          64.0156   91.5639   12.3505 C.3     1  UNL1        0.1416
      7 C          63.5187   90.8566   13.5764 C.3     1  UNL1        0.1353
      8 O          62.1925   90.1561   13.5523 O.3     1  UNL1       -0.3827
      9 H          61.7897   90.2565   12.6756 H       1  UNL1        0.2104
     10 N          63.1863   91.5707   11.1005 N.3     1  UNL1       -0.2887
     11 H          63.4647   92.3943   10.5669 H       1  UNL1        0.1237
     12 C          63.2409   90.4052   10.1579 C.3     1  UNL1        0.0958
     13 C          62.0832   89.4554   10.0718 C.ar    1  UNL1       -0.0067
     14 C          60.8523   89.6966   10.8945 C.ar    1  UNL1       -0.0029
     15 C          59.6946   88.7468   10.8084 C.ar    1  UNL1       -0.0006
     16 C          59.7677   87.5557    9.8995 C.ar    1  UNL1       -0.0043
     17 C          60.9985   87.3144    9.0768 C.ar    1  UNL1       -0.0231
     18 C          62.1563   88.2643    9.1630 C.ar    1  UNL1       -0.0072
     19 C          61.0717   86.1234    8.1680 C.3     1  UNL1        0.0189
     20 C          62.4771   85.8627    8.6226 C.3     1  UNL1        0.0044
     21 C          59.6662   86.3840    7.7134 C.3     1  UNL1        0.0044
     22 C          61.1448   84.9323    7.2592 C.3     1  UNL1        0.0044
     23 C          63.8511   90.1425   16.0521 C.3     1  UNL1        0.0342
     24 C          64.2265   86.3463   14.9574 C.ar    1  UNL1        0.1535
     25 C          64.3427   87.8418   14.9498 C.ar    1  UNL1        0.0341
     26 C          63.7349   88.6470   16.0598 C.ar    1  UNL1       -0.0166
     27 C          63.0109   87.9567   17.1775 C.ar    1  UNL1        0.0268
     28 C          62.8947   86.4613   17.1852 C.ar    1  UNL1        0.1556
     29 F          62.1707   85.7709   18.3029 F       1  UNL1       -0.2028
     30 C          63.5025   85.6561   16.0751 C.ar    1  UNL1        0.1037
     31 N          63.3863   84.1605   16.0828 N.pl3   1  UNL1       -0.3529
     32 H          62.9111   83.7075   16.8164 H       1  UNL1        0.1425
     33 H          63.7852   83.6321   15.3543 H       1  UNL1        0.1425
     34 O          64.8344   85.5411   13.8474 O.3     1  UNL1       -0.4665
     35 C          63.9736   84.6301   13.0234 C.3     1  UNL1        0.2891
     36 C          62.6893   85.1382   12.4379 C.3     1  UNL1        0.4366
     37 F          61.4052   85.6462   11.8525 F       1  UNL1       -0.1663
     38 F          63.3486   86.4498   12.1299 F       1  UNL1       -0.1663
     39 F          62.0301   83.8265   12.7459 F       1  UNL1       -0.1663
     40 C          64.3969   83.2110   12.7848 C.3     1  UNL1        0.1945
     41 C          63.9263   82.2781   10.4061 C.3     1  UNL1        0.1743
     42 O          64.8919   82.7934   11.4318 O.3     1  UNL1       -0.3469
@<TRIPOS>UNITY_ATOM_ATTR
3 1
charge 1
4 1
charge -1
@<TRIPOS>BOND
     1    41    42    1
     2    42    40    1
     3    35    40    1
     4    35    34    1
     5    34    24    1
     6    24    25   ar
     7    25    26   ar
     8    26    23    1
     9     1    23    1
    10     1     2    1
    11     2     3    1
    12     3     4    2
    13     3     5    1
    14     5     6    1
    15     6    10    1
    16    10    12    1
    17    12    13    1
    18    13    14   ar
    19    14    15   ar
    20    15    16   ar
    21    16    17   ar
    22    17    19    1
    23    19    20    1
    24    19    21    1
    25    19    22    1
    26    17    18   ar
    27     6     7    1
    28     7     8    1
    29    26    27   ar
    30    27    28   ar
    31    28    29    1
    32    28    30   ar
    33    30    31    1
    34    35    36    1
    35    36    37    1
    36    36    38    1
    37    36    39    1
    38    30    24   ar
    39     7     1    1
    40    18    13   ar
    41    10    11    1
    42     8     9    1
    43    31    32    1
    44    31    33    1
@<TRIPOS>MOLECULE
*****
 42 44 0 0 0
SMALL
GASTEIGER

@<TRIPOS>ATOM
      1 C          61.9935   90.1256   10.4791 C.3     1  UNL1        0.0920
      2 C          60.8157   90.6330   11.2571 C.3     1  UNL1        0.2582
      3 S          59.6915   89.7037   11.6074 S.O     1  UNL1        0.0319
      4 O          58.5137   90.2110   12.3854 O.co2   1  UNL1       -0.6812
      5 C          59.7452   88.2669   11.1795 C.3     1  UNL1        0.2736
      6 C          60.9230   87.7596   10.4015 C.3     1  UNL1        0.1416
      7 C          62.0471   88.6889   10.0513 C.3     1  UNL1        0.1353
      8 O          63.2250   88.1815    9.2732 O.3     1  UNL1       -0.3827
      9 H          63.1020   87.2393    9.0782 H       1  UNL1        0.2104
     10 N          60.9767   86.3228    9.9737 N.3     1  UNL1       -0.2887
     11 H          60.7325   86.3011    8.9835 H       1  UNL1        0.1237
     12 C          62.2492   85.5429   10.1231 C.3     1  UNL1        0.0958
     13 C          62.5668   84.8680   11.4245 C.ar    1  UNL1       -0.0067
     14 C          63.1105   85.6679   12.5710 C.ar    1  UNL1       -0.0029
     15 C          63.4281   84.9930   13.8724 C.ar    1  UNL1       -0.0006
     16 C          63.2021   83.5182   14.0273 C.ar    1  UNL1       -0.0043
     17 C          62.6584   82.7183   12.8807 C.ar    1  UNL1       -0.0231
     18 C          62.3408   83.3933   11.5793 C.ar    1  UNL1       -0.0072
     19 C          62.4324   81.2436   13.0355 C.3     1  UNL1        0.0189
     20 C          61.8737   81.4734   14.4084 C.3     1  UNL1        0.0044
     21 C          62.9911   81.0139   11.6625 C.3     1  UNL1        0.0044
     22 C          62.2064   79.7689   13.1903 C.3     1  UNL1        0.0044
     23 C          63.1177   91.0549   10.1289 C.3     1  UNL1        0.0342
     24 C          65.8896   93.1922   11.9993 C.ar    1  UNL1        0.1535
     25 C          64.9591   92.7039   10.9290 C.ar    1  UNL1        0.0341
     26 C          64.0483   91.5431   11.1993 C.ar    1  UNL1       -0.0166
     27 C          64.0680   90.8707   12.5399 C.ar    1  UNL1        0.0268
     28 C          64.9985   91.3589   13.6102 C.ar    1  UNL1        0.1556
     29 F          65.0183   90.6865   14.9509 F       1  UNL1       -0.2028
     30 C          65.9094   92.5197   13.3399 C.ar    1  UNL1        0.1037
     31 N          66.8400   93.0079   14.4103 N.pl3   1  UNL1       -0.3529
     32 H          66.8529   92.5666   15.2902 H       1  UNL1        0.1425
     33 H          67.4378   93.7698   14.2329 H       1  UNL1        0.1425
     34 O          66.8005   94.3529   11.7289 O.3     1  UNL1       -0.4665
     35 C          66.7743   95.0311   10.3913 C.3     1  UNL1        0.2891
     36 C          65.6377   95.9428   10.0348 C.3     1  UNL1        0.4366
     37 F          64.5012   96.8544    9.6782 F       1  UNL1       -0.1663
     38 F          65.5265   96.3654   11.4697 F       1  UNL1       -0.1663
     39 F          65.7490   95.5202    8.5999 F       1  UNL1       -0.1663
     40 C          67.8847   94.7977    9.4102 C.3     1  UNL1        0.1945
     41 C          68.3203   92.2364    9.4018 C.3     1  UNL1        0.1743
     42 O          68.8180   93.6381    9.5957 O.3     1  UNL1       -0.3469
@<TRIPOS>UNITY_ATOM_ATTR
3 1
charge 1
4 1
charge -1
@<TRIPOS>BOND
     1    41    42    1
     2    42    40    1
     3    35    40    1
     4    35    34    1
     5    34    24    1
     6    24    25   ar
     7    25    26   ar
     8    26    23    1
     9     1    23    1
    10     1     2    1
    11     2     3    1
    12     3     4    2
    13     3     5    1
    14     5     6    1
    15     6    10    1
    16    10    12    1
    17    12    13    1
    18    13    14   ar
    19    14    15   ar
    20    15    16   ar
    21    16    17   ar
    22    17    19    1
    23    19    20    1
    24    19    21    1
    25    19    22    1
    26    17    18   ar
    27     6     7    1
    28     7     8    1
    29    26    27   ar
    30    27    28   ar
    31    28    29    1
    32    28    30   ar
    33    30    31    1
    34    35    36    1
    35    36    37    1
    36    36    38    1
    37    36    39    1
    38    30    24   ar
    39     7     1    1
    40    18    13   ar
    41    10    11    1
    42     8     9    1
    43    31    32    1
    44    31    33    1
@<TRIPOS>MOLECULE
*****
 42 44 0 0 0
SMALL
GASTEIGER

@<TRIPOS>ATOM
      1 C          62.1624   90.7168   10.8826 C.3     1  UNL1        0.0920
      2 C          63.2380   91.4664   10.1536 C.3     1  UNL1        0.2582
      3 S          64.4649   91.9205   10.8875 S.O     1  UNL1        0.0319
      4 O          65.5405   92.6700   10.1586 O.co2   1  UNL1       -0.6812
      5 C          64.6162   91.6250   12.3504 C.3     1  UNL1        0.2736
      6 C          63.5406   90.8755   13.0793 C.3     1  UNL1        0.1416
      7 C          62.3137   90.4214   12.3454 C.3     1  UNL1        0.1353
      8 O          61.2381   89.6719   13.0744 O.3     1  UNL1       -0.3827
      9 H          61.4914   89.5662   14.0047 H       1  UNL1        0.2104
     10 N          63.6918   90.5801   14.5422 N.3     1  UNL1       -0.2887
     11 H          62.7588   90.3737   14.8989 H       1  UNL1        0.1237
     12 C          64.5849   89.4625   14.9932 C.3     1  UNL1        0.0958
     13 C          63.9948   88.2473   15.6450 C.ar    1  UNL1       -0.0067
     14 C          63.1962   88.3863   16.9071 C.ar    1  UNL1       -0.0029
     15 C          62.6060   87.1711   17.5589 C.ar    1  UNL1       -0.0006
     16 C          62.8145   85.8168   16.9486 C.ar    1  UNL1       -0.0043
     17 C          63.6131   85.6777   15.6865 C.ar    1  UNL1       -0.0231
     18 C          64.2032   86.8931   15.0347 C.ar    1  UNL1       -0.0072
     19 C          63.8215   84.3235   15.0762 C.3     1  UNL1        0.0189
     20 C          62.4799   83.8874   15.5857 C.3     1  UNL1        0.0044
     21 C          65.1632   84.7596   14.5667 C.3     1  UNL1        0.0044
     22 C          64.0300   82.9693   14.4659 C.3     1  UNL1        0.0044
     23 C          60.9356   90.2627   10.1487 C.3     1  UNL1        0.0342
     24 C          62.0851   86.6759    8.8984 C.ar    1  UNL1        0.1535
     25 C          62.0914   88.0014    9.6005 C.ar    1  UNL1        0.0341
     26 C          60.9293   88.9372    9.4465 C.ar    1  UNL1       -0.0166
     27 C          59.7609   88.5475    8.5904 C.ar    1  UNL1        0.0268
     28 C          59.7546   87.2220    7.8883 C.ar    1  UNL1        0.1556
     29 F          58.5862   86.8323    7.0322 F       1  UNL1       -0.2028
     30 C          60.9167   86.2862    8.0423 C.ar    1  UNL1        0.1037
     31 N          60.9104   84.9607    7.3402 N.pl3   1  UNL1       -0.3529
     32 H          60.1436   84.7049    6.7783 H       1  UNL1        0.1425
     33 H          61.6732   84.3464    7.4412 H       1  UNL1        0.1425
     34 O          63.2473   85.7401    9.0524 O.3     1  UNL1       -0.4665
     35 C          63.2525   84.7264   10.1580 C.3     1  UNL1        0.2891
     36 C          62.4993   84.9965   11.4268 C.3     1  UNL1        0.4366
     37 F          61.7461   85.2665   12.6955 F       1  UNL1       -0.1663
     38 F          61.3839   84.1125   10.9529 F       1  UNL1       -0.1663
     39 F          63.6146   85.8804   11.9008 F       1  UNL1       -0.1663
     40 C          64.0111   83.4426    9.9949 C.3     1  UNL1        0.1945
     41 C          63.1154   81.3384   11.2278 C.3     1  UNL1        0.1743
     42 O          64.0945   82.4708   11.1346 O.3     1  UNL1       -0.3469
@<TRIPOS>UNITY_ATOM_ATTR
3 1
charge 1
4 1
charge -1
@<TRIPOS>BOND
     1    41    42    1
     2    42    40    1
     3    35    40    1
     4    35    34    1
     5    34    24    1
     6    24    25   ar
     7    25    26   ar
     8    26    23    1
     9     1    23    1
    10     1     2    1
    11     2     3    1
    12     3     4    2
    13     3     5    1
    14     5     6    1
    15     6    10    1
    16    10    12    1
    17    12    13    1
    18    13    14   ar
    19    14    15   ar
    20    15    16   ar
    21    16    17   ar
    22    17    19    1
    23    19    20    1
    24    19    21    1
    25    19    22    1
    26    17    18   ar
    27     6     7    1
    28     7     8    1
    29    26    27   ar
    30    27    28   ar
    31    28    29    1
    32    28    30   ar
    33    30    31    1
    34    35    36    1
    35    36    37    1
    36    36    38    1
    37    36    39    1
    38    30    24   ar
    39     7     1    1
    40    18    13   ar
    41    10    11    1
    42     8     9    1
    43    31    32    1
    44    31    33    1
@<TRIPOS>MOLECULE
*****
 42 44 0 0 0
SMALL
GASTEIGER

@<TRIPOS>ATOM
      1 C          63.6151   82.9800   11.4088 C.3     1  UNL1        0.0920
      2 C          63.2229   81.5418   11.2417 C.3     1  UNL1        0.2582
      3 S          62.8856   80.7117   12.4447 S.O     1  UNL1        0.0319
      4 O          62.4934   79.2736   12.2776 O.co2   1  UNL1       -0.6812
      5 C          62.9406   81.3198   13.8148 C.3     1  UNL1        0.2736
      6 C          63.3328   82.7579   13.9819 C.3     1  UNL1        0.1416
      7 C          63.6701   83.5880   12.7789 C.3     1  UNL1        0.1353
      8 O          64.0623   85.0262   12.9461 O.3     1  UNL1       -0.3827
      9 H          64.0475   85.2580   13.8879 H       1  UNL1        0.2104
     10 N          63.3878   83.3660   15.3521 N.3     1  UNL1       -0.2887
     11 H          63.5884   82.6070   16.0033 H       1  UNL1        0.1237
     12 C          64.3694   84.4610   15.6478 C.3     1  UNL1        0.0958
     13 C          63.8834   85.7887   16.1487 C.ar    1  UNL1       -0.0067
     14 C          63.1524   85.8755   17.4556 C.ar    1  UNL1       -0.0029
     15 C          62.6665   87.2032   17.9565 C.ar    1  UNL1       -0.0006
     16 C          62.9115   88.4443   17.1505 C.ar    1  UNL1       -0.0043
     17 C          63.6425   88.3576   15.8435 C.ar    1  UNL1       -0.0231
     18 C          64.1285   87.0298   15.3426 C.ar    1  UNL1       -0.0072
     19 C          63.8876   89.5986   15.0374 C.3     1  UNL1        0.0189
     20 C          63.5899   90.4403   16.2428 C.3     1  UNL1        0.0044
     21 C          64.1853   88.7569   13.8321 C.3     1  UNL1        0.0044
     22 C          64.1326   90.8396   14.2314 C.3     1  UNL1        0.0044
     23 C          63.9524   83.8101   10.2058 C.3     1  UNL1        0.0342
     24 C          61.0409   86.4633    9.7224 C.ar    1  UNL1        0.1535
     25 C          62.0986   85.6226   10.3739 C.ar    1  UNL1        0.0341
     26 C          62.8946   84.6508    9.5542 C.ar    1  UNL1       -0.0166
     27 C          62.6330   84.5197    8.0831 C.ar    1  UNL1        0.0268
     28 C          61.5754   85.3604    7.4316 C.ar    1  UNL1        0.1556
     29 F          61.3137   85.2293    5.9604 F       1  UNL1       -0.2028
     30 C          60.7793   86.3322    8.2512 C.ar    1  UNL1        0.1037
     31 N          59.7216   87.1729    7.5997 N.pl3   1  UNL1       -0.3529
     32 H          59.5499   87.0869    6.6341 H       1  UNL1        0.1425
     33 H          59.1991   87.8108    8.1376 H       1  UNL1        0.1425
     34 O          60.2449   87.4352   10.5420 O.3     1  UNL1       -0.4665
     35 C          60.8361   88.7621   10.9155 C.3     1  UNL1        0.2891
     36 C          59.9398   89.9379   11.1691 C.3     1  UNL1        0.4366
     37 F          59.0436   91.1137   11.4226 F       1  UNL1       -0.1663
     38 F          60.0976   89.7394   12.6474 F       1  UNL1       -0.1663
     39 F          59.7821   90.1365    9.6907 F       1  UNL1       -0.1663
     40 C          62.3237   88.9134   11.0354 C.3     1  UNL1        0.1945
     41 C          63.0783   91.2920   10.3124 C.3     1  UNL1        0.1743
     42 O          63.0653   89.8090   10.0877 O.3     1  UNL1       -0.3469
@<TRIPOS>UNITY_ATOM_ATTR
3 1
charge 1
4 1
charge -1
@<TRIPOS>BOND
     1    41    42    1
     2    42    40    1
     3    35    40    1
     4    35    34    1
     5    34    24    1
     6    24    25   ar
     7    25    26   ar
     8    26    23    1
     9     1    23    1
    10     1     2    1
    11     2     3    1
    12     3     4    2
    13     3     5    1
    14     5     6    1
    15     6    10    1
    16    10    12    1
    17    12    13    1
    18    13    14   ar
    19    14    15   ar
    20    15    16   ar
    21    16    17   ar
    22    17    19    1
    23    19    20    1
    24    19    21    1
    25    19    22    1
    26    17    18   ar
    27     6     7    1
    28     7     8    1
    29    26    27   ar
    30    27    28   ar
    31    28    29    1
    32    28    30   ar
    33    30    31    1
    34    35    36    1
    35    36    37    1
    36    36    38    1
    37    36    39    1
    38    30    24   ar
    39     7     1    1
    40    18    13   ar
    41    10    11    1
    42     8     9    1
    43    31    32    1
    44    31    33    1
