@<TRIPOS>MOLECULE
*****
 45 50 0 0 0
SMALL
GASTEIGER

@<TRIPOS>ATOM
      1 C          63.8870   87.7491   13.4986 C.ar    1  UNL1        0.1512
      2 C          63.1733   88.0223   12.2078 C.ar    1  UNL1        0.0619
      3 C          62.5940   86.7293   11.7156 C.ar    1  UNL1        0.0987
      4 S          62.9496   85.6567   12.7021 S.2     1  UNL1       -0.0618
      5 C          63.7487   86.2870   13.8040 C.ar    1  UNL1        0.1178
      6 N          61.7987   86.5416   10.4577 N.ar    1  UNL1       -0.2823
      7 C          61.3590   85.2289    9.8802 C.ar    1  UNL1        0.1831
      8 N          60.5921   85.5098    8.6220 N.ar    1  UNL1       -0.2236
      9 C          60.5578   86.9960    8.4220 C.ar    1  UNL1        0.0991
     10 C          59.9438   87.8510    7.3533 C.ar    1  UNL1        0.0206
     11 C          60.0757   89.3437    7.4192 C.ar    1  UNL1        0.0017
     12 C          60.8215   89.9814    8.5537 C.ar    1  UNL1        0.0016
     13 C          61.4354   89.1264    9.6224 C.ar    1  UNL1        0.0191
     14 C          61.3036   87.6337    9.5565 C.ar    1  UNL1        0.0835
     15 C          59.4617   90.1987    6.3505 C.ar    1  UNL1        0.0044
     16 C          57.9701   90.3252    6.2559 C.ar    1  UNL1        0.0208
     17 C          57.3561   91.1802    5.1873 C.ar    1  UNL1        0.1003
     18 N          58.2338   91.9088    4.2132 N.ar    1  UNL1       -0.2292
     19 C          59.7255   91.7824    4.3078 C.ar    1  UNL1        0.1318
     20 C          60.3394   90.9273    5.3765 C.ar    1  UNL1        0.0343
     21 N          60.6032   92.5110    3.3338 N.pl3   1  UNL1       -0.2904
     22 C          62.0374   92.1046    3.1673 C.3     1  UNL1        0.1095
     23 C          62.9152   92.8331    2.1932 C.3     1  UNL1        0.0939
     24 N          62.3587   93.9681    1.3857 N.3     1  UNL1       -0.2686
     25 C          63.2364   94.6967    0.4117 C.3     1  UNL1        0.0897
     26 C          60.9244   94.3746    1.5523 C.3     1  UNL1        0.0939
     27 C          60.0467   93.6460    2.5263 C.3     1  UNL1        0.1095
     28 C          64.3109   85.5794   15.0013 C.2     1  UNL1        0.2518
     29 N          65.3635   84.5256   14.8239 N.am    1  UNL1       -0.3248
     30 O          63.8204   85.9256   16.3759 O.2     1  UNL1       -0.2697
     31 H          65.6855   84.2984   13.9217 H       1  UNL1        0.1453
     32 H          65.7325   84.0612   15.6097 H       1  UNL1        0.1453
     33 O          64.6116   88.7602   14.3366 O.3     1  UNL1       -0.4740
     34 C          63.2942   90.7233   15.4140 C.3     1  UNL1        0.0523
     35 C          64.1773   90.1959   14.3223 C.3     1  UNL1        0.1882
     36 C          64.6262   91.1041   13.2161 C.ar    1  UNL1        0.0211
     37 C          63.8813   91.1255   11.9143 C.ar    1  UNL1       -0.0009
     38 C          64.3302   92.0338   10.8082 C.ar    1  UNL1       -0.0002
     39 C          65.5240   92.9207   11.0038 C.ar    1  UNL1       -0.0001
     40 C          66.2689   92.8993   12.3055 C.ar    1  UNL1        0.0036
     41 C          65.8200   91.9910   13.4118 C.ar    1  UNL1        0.0708
     42 C          66.5649   91.9696   14.7135 C.3     1  UNL1        0.4184
     43 F          67.3099   91.9482   16.0153 F       1  UNL1       -0.1659
     44 F          67.4198   90.8464   14.2059 F       1  UNL1       -0.1659
     45 F          65.7101   93.0927   15.2212 F       1  UNL1       -0.1659
@<TRIPOS>BOND
     1    35    34    1
     2    35    33    1
     3    33     1    1
     4     1     2   ar
     5     2     3   ar
     6     3     6    1
     7     6     7   ar
     8     7     8   ar
     9     8     9   ar
    10     9    10   ar
    11    10    11   ar
    12    11    15    1
    13    15    16   ar
    14    16    17   ar
    15    17    18   ar
    16    18    19   ar
    17    19    21    1
    18    21    22    1
    19    22    23    1
    20    23    24    1
    21    24    25    1
    22    24    26    1
    23    26    27    1
    24    19    20   ar
    25    11    12   ar
    26    12    13   ar
    27    13    14   ar
    28     3     4   ar
    29     4     5   ar
    30     5    28    1
    31    28    29   am
    32    28    30    2
    33    35    36    1
    34    36    37   ar
    35    37    38   ar
    36    38    39   ar
    37    39    40   ar
    38    40    41   ar
    39    41    42    1
    40    42    43    1
    41    42    44    1
    42    42    45    1
    43     5     1   ar
    44    41    36   ar
    45    14     6   ar
    46    14     9   ar
    47    20    15   ar
    48    27    21    1
    49    29    31    1
    50    29    32    1
@<TRIPOS>MOLECULE
*****
 45 50 0 0 0
SMALL
GASTEIGER

@<TRIPOS>ATOM
      1 C          60.2918   88.6903    8.9612 C.ar    1  UNL1        0.1512
      2 C          59.9333   89.9628    8.2525 C.ar    1  UNL1        0.0619
      3 C          59.5797   89.6206    6.8356 C.ar    1  UNL1        0.0987
      4 S          59.7196   88.1365    6.6684 S.2     1  UNL1       -0.0618
      5 C          60.1598   87.5616    7.9821 C.ar    1  UNL1        0.1178
      6 N          59.1598   90.5919    5.7724 N.ar    1  UNL1       -0.2823
      7 C          57.7695   91.1095    5.5505 C.ar    1  UNL1        0.1831
      8 N          57.8070   92.0536    4.3854 N.ar    1  UNL1       -0.2236
      9 C          59.2204   92.1194    3.8874 C.ar    1  UNL1        0.0991
     10 C          59.8541   92.8852    2.7640 C.ar    1  UNL1        0.0206
     11 C          61.3238   92.7476    2.4979 C.ar    1  UNL1        0.0017
     12 C          62.1599   91.8442    3.3551 C.ar    1  UNL1        0.0016
     13 C          61.5262   91.0784    4.4785 C.ar    1  UNL1        0.0191
     14 C          60.0565   91.2160    4.7446 C.ar    1  UNL1        0.0835
     15 C          61.9576   93.5134    1.3745 C.ar    1  UNL1        0.0044
     16 C          63.2510   94.2396    1.5978 C.ar    1  UNL1        0.0208
     17 C          63.8847   95.0054    0.4745 C.ar    1  UNL1        0.1003
     18 N          63.2251   95.0451   -0.8722 N.ar    1  UNL1       -0.2292
     19 C          61.9317   94.3189   -1.0954 C.ar    1  UNL1        0.1318
     20 C          61.2980   93.5531    0.0280 C.ar    1  UNL1        0.0343
     21 N          61.2721   94.3585   -2.4420 N.pl3   1  UNL1       -0.2904
     22 C          62.0775   94.6942   -3.6620 C.3     1  UNL1        0.1095
     23 C          61.4179   94.7339   -5.0087 C.3     1  UNL1        0.0939
     24 N          59.9528   94.4378   -5.1352 N.3     1  UNL1       -0.2686
     25 C          59.2932   94.4775   -6.4818 C.3     1  UNL1        0.0897
     26 C          59.1474   94.1021   -3.9151 C.3     1  UNL1        0.0939
     27 C          59.8070   94.0625   -2.5685 C.3     1  UNL1        0.1095
     28 C          60.4218   86.1122    8.2667 C.2     1  UNL1        0.2518
     29 N          60.9370   85.6932    9.6117 N.am    1  UNL1       -0.3248
     30 O          60.1688   85.0820    7.2062 O.2     1  UNL1       -0.2697
     31 H          61.1031   86.3694   10.3077 H       1  UNL1        0.1453
     32 H          61.1090   84.7421    9.7985 H       1  UNL1        0.1453
     33 O          60.7091   88.5679   10.3967 O.3     1  UNL1       -0.4740
     34 C          62.8939   89.9428   10.1027 C.3     1  UNL1        0.0523
     35 C          62.1276   88.8533   10.7923 C.3     1  UNL1        0.1882
     36 C          62.7797   88.0490   11.8777 C.ar    1  UNL1        0.0211
     37 C          62.7690   86.5506   11.8104 C.ar    1  UNL1       -0.0009
     38 C          63.4211   85.7464   12.8957 C.ar    1  UNL1       -0.0002
     39 C          64.0839   86.4406   14.0484 C.ar    1  UNL1       -0.0001
     40 C          64.0946   87.9390   14.1157 C.ar    1  UNL1        0.0036
     41 C          63.4425   88.7433   13.0304 C.ar    1  UNL1        0.0708
     42 C          63.4532   90.2416   13.0977 C.3     1  UNL1        0.4184
     43 F          63.4640   91.7401   13.1651 F       1  UNL1       -0.1659
     44 F          64.9435   90.2387   12.9266 F       1  UNL1       -0.1659
     45 F          61.9631   90.2447   13.2688 F       1  UNL1       -0.1659
@<TRIPOS>BOND
     1    35    34    1
     2    35    33    1
     3    33     1    1
     4     1     2   ar
     5     2     3   ar
     6     3     6    1
     7     6     7   ar
     8     7     8   ar
     9     8     9   ar
    10     9    10   ar
    11    10    11   ar
    12    11    15    1
    13    15    16   ar
    14    16    17   ar
    15    17    18   ar
    16    18    19   ar
    17    19    21    1
    18    21    22    1
    19    22    23    1
    20    23    24    1
    21    24    25    1
    22    24    26    1
    23    26    27    1
    24    19    20   ar
    25    11    12   ar
    26    12    13   ar
    27    13    14   ar
    28     3     4   ar
    29     4     5   ar
    30     5    28    1
    31    28    29   am
    32    28    30    2
    33    35    36    1
    34    36    37   ar
    35    37    38   ar
    36    38    39   ar
    37    39    40   ar
    38    40    41   ar
    39    41    42    1
    40    42    43    1
    41    42    44    1
    42    42    45    1
    43     5     1   ar
    44    41    36   ar
    45    14     6   ar
    46    14     9   ar
    47    20    15   ar
    48    27    21    1
    49    29    31    1
    50    29    32    1
@<TRIPOS>MOLECULE
*****
 45 50 0 0 0
SMALL
GASTEIGER

@<TRIPOS>ATOM
      1 C          61.0853   88.5626    9.3173 C.ar    1  UNL1        0.1512
      2 C          60.5401   89.7563    8.5908 C.ar    1  UNL1        0.0619
      3 C          59.8149   89.2664    7.3726 C.ar    1  UNL1        0.0987
      4 S          59.9119   87.7697    7.3461 S.2     1  UNL1       -0.0618
      5 C          60.6970   87.3348    8.5480 C.ar    1  UNL1        0.1178
      6 N          59.1155   90.1226    6.3588 N.ar    1  UNL1       -0.2823
      7 C          57.6377   90.3675    6.2806 C.ar    1  UNL1        0.1831
      8 N          57.3801   91.2805    5.1187 N.ar    1  UNL1       -0.2236
      9 C          58.6987   91.5999    4.4788 C.ar    1  UNL1        0.0991
     10 C          59.0612   92.4499    3.2973 C.ar    1  UNL1        0.0206
     11 C          60.4963   92.5842    2.8822 C.ar    1  UNL1        0.0017
     12 C          61.5689   91.8686    3.6487 C.ar    1  UNL1        0.0016
     13 C          61.2063   91.0186    4.8302 C.ar    1  UNL1        0.0191
     14 C          59.7712   90.8842    5.2453 C.ar    1  UNL1        0.0835
     15 C          60.8589   93.4342    1.7007 C.ar    1  UNL1        0.0044
     16 C          61.9277   94.4790    1.8281 C.ar    1  UNL1        0.0208
     17 C          62.2903   95.3290    0.6466 C.ar    1  UNL1        0.1003
     18 N          61.5841   95.1343   -0.6624 N.ar    1  UNL1       -0.2292
     19 C          60.5154   94.0895   -0.7899 C.ar    1  UNL1        0.1318
     20 C          60.1528   93.2395    0.3917 C.ar    1  UNL1        0.0343
     21 N          59.8093   93.8947   -2.0988 N.pl3   1  UNL1       -0.2904
     22 C          58.7438   92.8468   -2.2275 C.3     1  UNL1        0.1095
     23 C          58.0376   92.6520   -3.5365 C.3     1  UNL1        0.0939
     24 N          58.3969   93.5052   -4.7168 N.3     1  UNL1       -0.2686
     25 C          57.6908   93.3104   -6.0257 C.3     1  UNL1        0.0897
     26 C          59.4625   94.5532   -4.5880 C.3     1  UNL1        0.0939
     27 C          60.1686   94.7479   -3.2791 C.3     1  UNL1        0.1095
     28 C          61.0346   85.9203    8.9160 C.2     1  UNL1        0.2518
     29 N          61.2634   85.5532   10.3522 N.am    1  UNL1       -0.3248
     30 O          61.1433   84.8730    7.8476 O.2     1  UNL1       -0.2697
     31 H          61.1921   86.2406   11.0534 H       1  UNL1        0.1453
     32 H          61.4850   84.6248   10.5937 H       1  UNL1        0.1453
     33 O          61.8792   88.5916   10.5895 O.3     1  UNL1       -0.4740
     34 C          60.6432   90.1614   12.2502 C.3     1  UNL1        0.0523
     35 C          61.8669   89.8176   11.4536 C.3     1  UNL1        0.1882
     36 C          63.0781   90.6999   11.5210 C.ar    1  UNL1        0.0211
     37 C          63.4214   91.5920   10.3651 C.ar    1  UNL1       -0.0009
     38 C          64.6327   92.4742   10.4325 C.ar    1  UNL1       -0.0002
     39 C          65.5005   92.4644   11.6559 C.ar    1  UNL1       -0.0001
     40 C          65.1571   91.5723   12.8118 C.ar    1  UNL1        0.0036
     41 C          63.9459   90.6900   12.7444 C.ar    1  UNL1        0.0708
     42 C          63.6026   89.7980   13.9003 C.3     1  UNL1        0.4184
     43 F          63.2592   88.9059   15.0564 F       1  UNL1       -0.1659
     44 F          63.2630   91.0017   14.7285 F       1  UNL1       -0.1659
     45 F          63.9420   88.5942   13.0723 F       1  UNL1       -0.1659
@<TRIPOS>BOND
     1    35    34    1
     2    35    33    1
     3    33     1    1
     4     1     2   ar
     5     2     3   ar
     6     3     6    1
     7     6     7   ar
     8     7     8   ar
     9     8     9   ar
    10     9    10   ar
    11    10    11   ar
    12    11    15    1
    13    15    16   ar
    14    16    17   ar
    15    17    18   ar
    16    18    19   ar
    17    19    21    1
    18    21    22    1
    19    22    23    1
    20    23    24    1
    21    24    25    1
    22    24    26    1
    23    26    27    1
    24    19    20   ar
    25    11    12   ar
    26    12    13   ar
    27    13    14   ar
    28     3     4   ar
    29     4     5   ar
    30     5    28    1
    31    28    29   am
    32    28    30    2
    33    35    36    1
    34    36    37   ar
    35    37    38   ar
    36    38    39   ar
    37    39    40   ar
    38    40    41   ar
    39    41    42    1
    40    42    43    1
    41    42    44    1
    42    42    45    1
    43     5     1   ar
    44    41    36   ar
    45    14     6   ar
    46    14     9   ar
    47    20    15   ar
    48    27    21    1
    49    29    31    1
    50    29    32    1
@<TRIPOS>MOLECULE
*****
 45 50 0 0 0
SMALL
GASTEIGER

@<TRIPOS>ATOM
      1 C          62.7953   85.7587   13.1010 C.ar    1  UNL1        0.1512
      2 C          62.0518   85.2718   11.8926 C.ar    1  UNL1        0.0619
      3 C          61.9192   86.4196   10.9361 C.ar    1  UNL1        0.0987
      4 S          62.5808   87.6160   11.5533 S.2     1  UNL1       -0.0618
      5 C          63.1222   87.2075   12.8912 C.ar    1  UNL1        0.1178
      6 N          61.2437   86.3783    9.5975 N.ar    1  UNL1       -0.2823
      7 C          60.9000   85.1418    8.8211 C.ar    1  UNL1        0.1831
      8 N          60.2372   85.5657    7.5440 N.ar    1  UNL1       -0.2236
      9 C          60.1713   87.0642    7.5311 C.ar    1  UNL1        0.0991
     10 C          59.6252   88.0362    6.5277 C.ar    1  UNL1        0.0206
     11 C          59.7011   89.5105    6.7934 C.ar    1  UNL1        0.0017
     12 C          60.3232   90.0127    8.0626 C.ar    1  UNL1        0.0016
     13 C          60.8693   89.0407    9.0660 C.ar    1  UNL1        0.0191
     14 C          60.7934   87.5664    8.8002 C.ar    1  UNL1        0.0835
     15 C          59.1550   90.4826    5.7900 C.ar    1  UNL1        0.0044
     16 C          57.6772   90.7266    5.7096 C.ar    1  UNL1        0.0208
     17 C          57.1310   91.6987    4.7062 C.ar    1  UNL1        0.1003
     18 N          58.0627   92.4267    3.7831 N.ar    1  UNL1       -0.2292
     19 C          59.5405   92.1827    3.8635 C.ar    1  UNL1        0.1318
     20 C          60.0867   91.2105    4.8670 C.ar    1  UNL1        0.0343
     21 N          60.4722   92.9106    2.9405 N.pl3   1  UNL1       -0.2904
     22 C          60.0020   94.1351    2.2129 C.3     1  UNL1        0.1095
     23 C          60.9337   94.8631    1.2898 C.3     1  UNL1        0.0939
     24 N          62.3356   94.3666    1.0944 N.3     1  UNL1       -0.2686
     25 C          63.2673   95.0946    0.1714 C.3     1  UNL1        0.0897
     26 C          62.8058   93.1421    1.8221 C.3     1  UNL1        0.0939
     27 C          61.8741   92.4141    2.7451 C.3     1  UNL1        0.1095
     28 C          63.8609   88.0926   13.8510 C.2     1  UNL1        0.2518
     29 N          64.2363   87.5779   15.2090 N.am    1  UNL1       -0.3248
     30 O          64.2242   89.4924   13.4527 O.2     1  UNL1       -0.2697
     31 H          63.9979   86.6591   15.4704 H       1  UNL1        0.1453
     32 H          64.7211   88.1588   15.8389 H       1  UNL1        0.1453
     33 O          63.1496   84.9405   14.3071 O.3     1  UNL1       -0.4740
     34 C          64.5861   83.0150   15.2964 C.3     1  UNL1        0.0523
     35 C          63.8474   83.6231   14.1412 C.3     1  UNL1        0.1882
     36 C          63.8064   82.9138   12.8202 C.ar    1  UNL1        0.0211
     37 C          64.6835   83.3747   11.6939 C.ar    1  UNL1       -0.0009
     38 C          64.6425   82.6655   10.3729 C.ar    1  UNL1       -0.0002
     39 C          63.7245   81.4953   10.1780 C.ar    1  UNL1       -0.0001
     40 C          62.8474   81.0345   11.3041 C.ar    1  UNL1        0.0036
     41 C          62.8884   81.7437   12.6253 C.ar    1  UNL1        0.0708
     42 C          62.0114   81.2829   13.7514 C.3     1  UNL1        0.4184
     43 F          61.1343   80.8219   14.8777 F       1  UNL1       -0.1659
     44 F          62.7518   79.9791   13.7946 F       1  UNL1       -0.1659
     45 F          61.2708   82.5865   13.7084 F       1  UNL1       -0.1659
@<TRIPOS>BOND
     1    35    34    1
     2    35    33    1
     3    33     1    1
     4     1     2   ar
     5     2     3   ar
     6     3     6    1
     7     6     7   ar
     8     7     8   ar
     9     8     9   ar
    10     9    10   ar
    11    10    11   ar
    12    11    15    1
    13    15    16   ar
    14    16    17   ar
    15    17    18   ar
    16    18    19   ar
    17    19    21    1
    18    21    22    1
    19    22    23    1
    20    23    24    1
    21    24    25    1
    22    24    26    1
    23    26    27    1
    24    19    20   ar
    25    11    12   ar
    26    12    13   ar
    27    13    14   ar
    28     3     4   ar
    29     4     5   ar
    30     5    28    1
    31    28    29   am
    32    28    30    2
    33    35    36    1
    34    36    37   ar
    35    37    38   ar
    36    38    39   ar
    37    39    40   ar
    38    40    41   ar
    39    41    42    1
    40    42    43    1
    41    42    44    1
    42    42    45    1
    43     5     1   ar
    44    41    36   ar
    45    14     6   ar
    46    14     9   ar
    47    20    15   ar
    48    27    21    1
    49    29    31    1
    50    29    32    1
@<TRIPOS>MOLECULE
*****
 45 50 0 0 0
SMALL
GASTEIGER

@<TRIPOS>ATOM
      1 C          63.7012   87.0551   13.5240 C.ar    1  UNL1        0.1512
      2 C          63.0147   86.3407   12.3978 C.ar    1  UNL1        0.0619
      3 C          62.3760   87.3718   11.5154 C.ar    1  UNL1        0.0987
      4 S          62.6677   88.7237   12.0962 S.2     1  UNL1       -0.0618
      5 C          63.4866   88.5280   13.3376 C.ar    1  UNL1        0.1178
      6 N          61.5846   87.0990   10.2707 N.ar    1  UNL1       -0.2823
      7 C          61.1792   85.7474    9.7622 C.ar    1  UNL1        0.1831
      8 N          60.4037   85.9431    8.4932 N.ar    1  UNL1       -0.2236
      9 C          60.3298   87.4157    8.2175 C.ar    1  UNL1        0.0991
     10 C          59.6923   88.1983    7.1080 C.ar    1  UNL1        0.0206
     11 C          59.7846   89.6954    7.0971 C.ar    1  UNL1        0.0017
     12 C          60.5145   90.4098    8.1957 C.ar    1  UNL1        0.0016
     13 C          61.1520   89.6272    9.3052 C.ar    1  UNL1        0.0191
     14 C          61.0597   88.1301    9.3160 C.ar    1  UNL1        0.0835
     15 C          59.1470   90.4781    5.9876 C.ar    1  UNL1        0.0044
     16 C          57.6529   90.5810    5.9049 C.ar    1  UNL1        0.0208
     17 C          57.0153   91.3637    4.7954 C.ar    1  UNL1        0.1003
     18 N          57.8719   92.0435    3.7687 N.ar    1  UNL1       -0.2292
     19 C          59.3661   91.9406    3.8514 C.ar    1  UNL1        0.1318
     20 C          60.0037   91.1579    4.9609 C.ar    1  UNL1        0.0343
     21 N          60.2227   92.6204    2.8248 N.pl3   1  UNL1       -0.2904
     22 C          59.5862   93.4282    1.7329 C.3     1  UNL1        0.1095
     23 C          60.4428   94.1080    0.7061 C.3     1  UNL1        0.0939
     24 N          61.9359   93.9800    0.7713 N.3     1  UNL1       -0.2686
     25 C          62.7925   94.6597   -0.2553 C.3     1  UNL1        0.0897
     26 C          62.5724   93.1721    1.8633 C.3     1  UNL1        0.0939
     27 C          61.7158   92.4924    2.8900 C.3     1  UNL1        0.1095
     28 C          64.0008   89.6145   14.2350 C.2     1  UNL1        0.2518
     29 N          63.3329   89.8784   15.5519 N.am    1  UNL1       -0.3248
     30 O          65.1830   90.4370   13.8155 O.2     1  UNL1       -0.2697
     31 H          62.5570   89.3386   15.8272 H       1  UNL1        0.1453
     32 H          63.6703   90.5915   16.1408 H       1  UNL1        0.1453
     33 O          64.4675   86.4102   14.6405 O.3     1  UNL1       -0.4740
     34 C          66.5388   84.8418   14.6331 C.3     1  UNL1        0.0523
     35 C          65.0640   85.0470   14.4511 C.3     1  UNL1        0.1882
     36 C          64.1859   83.8890   14.0798 C.ar    1  UNL1        0.0211
     37 C          64.5686   82.9929   12.9395 C.ar    1  UNL1       -0.0009
     38 C          63.6905   81.8349   12.5682 C.ar    1  UNL1       -0.0002
     39 C          62.4296   81.5730   13.3372 C.ar    1  UNL1       -0.0001
     40 C          62.0468   82.4691   14.4775 C.ar    1  UNL1        0.0036
     41 C          62.9250   83.6272   14.8489 C.ar    1  UNL1        0.0708
     42 C          62.5422   84.5232   15.9892 C.3     1  UNL1        0.4184
     43 F          62.1595   85.4193   17.1297 F       1  UNL1       -0.1659
     44 F          63.8648   84.2548   16.6441 F       1  UNL1       -0.1659
     45 F          61.2197   84.7917   15.3345 F       1  UNL1       -0.1659
@<TRIPOS>BOND
     1    35    34    1
     2    35    33    1
     3    33     1    1
     4     1     2   ar
     5     2     3   ar
     6     3     6    1
     7     6     7   ar
     8     7     8   ar
     9     8     9   ar
    10     9    10   ar
    11    10    11   ar
    12    11    15    1
    13    15    16   ar
    14    16    17   ar
    15    17    18   ar
    16    18    19   ar
    17    19    21    1
    18    21    22    1
    19    22    23    1
    20    23    24    1
    21    24    25    1
    22    24    26    1
    23    26    27    1
    24    19    20   ar
    25    11    12   ar
    26    12    13   ar
    27    13    14   ar
    28     3     4   ar
    29     4     5   ar
    30     5    28    1
    31    28    29   am
    32    28    30    2
    33    35    36    1
    34    36    37   ar
    35    37    38   ar
    36    38    39   ar
    37    39    40   ar
    38    40    41   ar
    39    41    42    1
    40    42    43    1
    41    42    44    1
    42    42    45    1
    43     5     1   ar
    44    41    36   ar
    45    14     6   ar
    46    14     9   ar
    47    20    15   ar
    48    27    21    1
    49    29    31    1
    50    29    32    1
@<TRIPOS>MOLECULE
*****
 45 50 0 0 0
SMALL
GASTEIGER

@<TRIPOS>ATOM
      1 C          60.2490   87.6487    8.7792 C.ar    1  UNL1        0.1512
      2 C          59.9504   88.0523    7.3656 C.ar    1  UNL1        0.0619
      3 C          59.6281   89.5172    7.3600 C.ar    1  UNL1        0.0987
      4 S          59.7274   90.0191    8.7700 S.2     1  UNL1       -0.0618
      5 C          60.1111   88.8644    9.6471 C.ar    1  UNL1        0.1178
      6 N          59.2694   90.3365    6.1557 N.ar    1  UNL1       -0.2823
      7 C          57.8907   90.7895    5.7763 C.ar    1  UNL1        0.1831
      8 N          57.9958   91.5795    4.5056 N.ar    1  UNL1       -0.2236
      9 C          59.4394   91.6148    4.0997 C.ar    1  UNL1        0.0991
     10 C          60.1388   92.2473    2.9331 C.ar    1  UNL1        0.0206
     11 C          61.6254   92.1114    2.7865 C.ar    1  UNL1        0.0017
     12 C          62.4126   91.3432    3.8063 C.ar    1  UNL1        0.0016
     13 C          61.7132   90.7107    4.9729 C.ar    1  UNL1        0.0191
     14 C          60.2266   90.8466    5.1195 C.ar    1  UNL1        0.0835
     15 C          62.3249   92.7439    1.6199 C.ar    1  UNL1        0.0044
     16 C          63.7684   93.1354    1.7334 C.ar    1  UNL1        0.0208
     17 C          64.4679   93.7678    0.5669 C.ar    1  UNL1        0.1003
     18 N          63.7238   94.0088   -0.7131 N.ar    1  UNL1       -0.2292
     19 C          62.2803   93.6172   -0.8266 C.ar    1  UNL1        0.1318
     20 C          61.5808   92.9848    0.3400 C.ar    1  UNL1        0.0343
     21 N          61.5362   93.8581   -2.1065 N.pl3   1  UNL1       -0.2904
     22 C          60.0656   93.5731   -2.1842 C.3     1  UNL1        0.1095
     23 C          59.3215   93.8140   -3.4642 C.3     1  UNL1        0.0939
     24 N          60.0480   94.3398   -4.6665 N.3     1  UNL1       -0.2686
     25 C          59.3040   94.5807   -5.9464 C.3     1  UNL1        0.0897
     26 C          61.5187   94.6248   -4.5888 C.3     1  UNL1        0.0939
     27 C          62.2628   94.3839   -3.3089 C.3     1  UNL1        0.1095
     28 C          60.3203   88.9161   11.1316 C.2     1  UNL1        0.2518
     29 N          59.6924   87.8784   12.0141 N.am    1  UNL1       -0.3248
     30 O          61.1574   90.0056   11.7335 O.2     1  UNL1       -0.2697
     31 H          59.1429   87.1634   11.6191 H       1  UNL1        0.1453
     32 H          59.8297   87.9124   12.9884 H       1  UNL1        0.1453
     33 O          60.6201   86.2715    9.2432 O.3     1  UNL1       -0.4740
     34 C          62.9153   85.5219    8.2839 C.3     1  UNL1        0.0523
     35 C          62.0616   85.9140    9.4533 C.3     1  UNL1        0.1882
     36 C          62.6495   85.9484   10.8329 C.ar    1  UNL1        0.0211
     37 C          62.7308   87.2458   11.5813 C.ar    1  UNL1       -0.0009
     38 C          63.3186   87.2802   12.9609 C.ar    1  UNL1       -0.0002
     39 C          63.8252   86.0173   13.5920 C.ar    1  UNL1       -0.0001
     40 C          63.7438   84.7199   12.8437 C.ar    1  UNL1        0.0036
     41 C          63.1560   84.6854   11.4640 C.ar    1  UNL1        0.0708
     42 C          63.0747   83.3881   10.7157 C.3     1  UNL1        0.4184
     43 F          62.9934   82.0907    9.9672 F       1  UNL1       -0.1659
     44 F          64.3956   83.6792   10.0674 F       1  UNL1       -0.1659
     45 F          61.7537   83.0969   11.3639 F       1  UNL1       -0.1659
@<TRIPOS>BOND
     1    35    34    1
     2    35    33    1
     3    33     1    1
     4     1     2   ar
     5     2     3   ar
     6     3     6    1
     7     6     7   ar
     8     7     8   ar
     9     8     9   ar
    10     9    10   ar
    11    10    11   ar
    12    11    15    1
    13    15    16   ar
    14    16    17   ar
    15    17    18   ar
    16    18    19   ar
    17    19    21    1
    18    21    22    1
    19    22    23    1
    20    23    24    1
    21    24    25    1
    22    24    26    1
    23    26    27    1
    24    19    20   ar
    25    11    12   ar
    26    12    13   ar
    27    13    14   ar
    28     3     4   ar
    29     4     5   ar
    30     5    28    1
    31    28    29   am
    32    28    30    2
    33    35    36    1
    34    36    37   ar
    35    37    38   ar
    36    38    39   ar
    37    39    40   ar
    38    40    41   ar
    39    41    42    1
    40    42    43    1
    41    42    44    1
    42    42    45    1
    43     5     1   ar
    44    41    36   ar
    45    14     6   ar
    46    14     9   ar
    47    20    15   ar
    48    27    21    1
    49    29    31    1
    50    29    32    1
