@<TRIPOS>MOLECULE
*****
 40 44 0 0 0
SMALL
GASTEIGER

@<TRIPOS>ATOM
      1 C          63.7251   83.5870   11.7771 C.ar    1  UNL1        0.2314
      2 N          63.9203   84.2768   13.0948 N.ar    1  UNL1       -0.1788
      3 C          63.7093   83.5231   14.3743 C.ar    1  UNL1        0.2191
      4 N          63.3030   82.0797   14.3364 N.ar    1  UNL1       -0.2157
      5 C          63.1077   81.3900   13.0187 C.ar    1  UNL1        0.0945
      6 C          63.3188   82.1436   11.7391 C.ar    1  UNL1        0.0770
      7 C          63.0537   81.2052   10.5993 C.3     1  UNL1        0.1750
      8 O          62.6788   79.8716   11.1745 O.3     1  UNL1       -0.3424
      9 C          62.7122   79.9858   12.6698 C.3     1  UNL1        0.1879
     10 N          63.9045   84.2129   15.6920 N.pl3   1  UNL1       -0.3045
     11 H          64.0796   83.6836   16.5035 H       1  UNL1        0.1496
     12 C          63.8329   85.7089   15.7732 C.3     1  UNL1        0.0745
     13 C          64.5220   86.5501   14.7399 C.3     1  UNL1        0.0369
     14 C          64.4504   88.0461   14.8211 C.3     1  UNL1        0.0741
     15 N          63.6896   88.7012   15.9357 N.3     1  UNL1       -0.2689
     16 C          63.0006   87.8601   16.9690 C.3     1  UNL1        0.0741
     17 C          63.0722   86.3640   16.8878 C.3     1  UNL1        0.0369
     18 C          63.6180   90.1972   16.0169 C.3     1  UNL1        0.0991
     19 C          64.3177   91.0384   14.9908 C.ar    1  UNL1       -0.0061
     20 C          65.4644   91.9163   15.3959 C.ar    1  UNL1       -0.0028
     21 C          66.1640   92.7575   14.3697 C.ar    1  UNL1        0.0042
     22 C          65.7168   92.7207   12.9383 C.ar    1  UNL1        0.0531
     23 C          64.5701   91.8427   12.5332 C.ar    1  UNL1        0.0042
     24 C          63.8705   91.0016   13.5594 C.ar    1  UNL1       -0.0028
     25 C          66.4165   93.5618   11.9122 C.2     1  UNL1        0.2427
     26 N          66.0182   94.9950   11.7193 N.am    1  UNL1       -0.3253
     27 O          67.5142   92.9697   11.0789 O.2     1  UNL1       -0.2704
     28 H          65.2977   95.3836   12.2662 H       1  UNL1        0.1453
     29 H          66.4774   95.5472   11.0458 H       1  UNL1        0.1453
     30 O          63.9362   84.3408   10.4974 O.3     1  UNL1       -0.4369
     31 C          63.4722   84.2457    7.5350 C.3     1  UNL1        0.0342
     32 C          62.5744   85.0708    8.4087 C.ar    1  UNL1        0.0131
     33 C          61.4447   85.8483    7.8012 C.ar    1  UNL1        0.0090
     34 C          60.5469   86.6734    8.6750 C.ar    1  UNL1        0.0680
     35 C          60.7789   86.7209   10.1561 C.ar    1  UNL1        0.0090
     36 C          61.9087   85.9433   10.7636 C.ar    1  UNL1        0.0131
     37 C          62.1407   85.9908   12.2448 C.3     1  UNL1        0.0342
     38 C          62.8064   85.1183    9.8899 C.ar    1  UNL1        0.1392
     39 C          59.4172   87.4509    8.0673 C.1     1  UNL1        0.1004
     40 N          58.2875   88.2285    7.4597 N.1     1  UNL1       -0.1908
@<TRIPOS>BOND
     1    31    32    1
     2    32    33   ar
     3    33    34   ar
     4    34    39    1
     5    39    40    3
     6    34    35   ar
     7    35    36   ar
     8    36    37    1
     9    36    38   ar
    10    38    30    1
    11    30     1    1
    12     1     2   ar
    13     2     3   ar
    14     3    10    1
    15    10    12    1
    16    12    13    1
    17    13    14    1
    18    14    15    1
    19    15    18    1
    20    18    19    1
    21    19    20   ar
    22    20    21   ar
    23    21    22   ar
    24    22    25    1
    25    25    26   am
    26    25    27    2
    27    22    23   ar
    28    23    24   ar
    29    15    16    1
    30    16    17    1
    31     3     4   ar
    32     4     5   ar
    33     5     6   ar
    34     6     7    1
    35     7     8    1
    36     8     9    1
    37    38    32   ar
    38     6     1   ar
    39    17    12    1
    40     9     5    1
    41    24    19   ar
    42    10    11    1
    43    26    28    1
    44    26    29    1
@<TRIPOS>MOLECULE
*****
 40 44 0 0 0
SMALL
GASTEIGER

@<TRIPOS>ATOM
      1 C          66.5551   92.8431   12.6649 C.ar    1  UNL1        0.2314
      2 N          65.2478   92.3726   12.0993 N.ar    1  UNL1       -0.1788
      3 C          64.1926   91.8184   13.0100 C.ar    1  UNL1        0.2191
      4 N          64.4446   91.7347   14.4863 N.ar    1  UNL1       -0.2157
      5 C          65.7518   92.2052   15.0519 C.ar    1  UNL1        0.0945
      6 C          66.8070   92.7593   14.1412 C.ar    1  UNL1        0.0770
      7 C          67.9892   93.1430   14.9809 C.3     1  UNL1        0.1750
      8 O          67.6646   92.8259   16.4106 O.3     1  UNL1       -0.3424
      9 C          66.2818   92.2463   16.4545 C.3     1  UNL1        0.1879
     10 N          62.8854   91.3480   12.4444 N.pl3   1  UNL1       -0.3045
     11 H          62.0946   91.9334   12.4795 H       1  UNL1        0.1496
     12 C          62.7830   89.9855   11.8254 C.3     1  UNL1        0.0745
     13 C          63.2372   88.7779   12.5906 C.3     1  UNL1        0.0369
     14 C          63.1349   87.4154   11.9717 C.3     1  UNL1        0.0741
     15 N          62.5782   87.2605   10.5873 N.3     1  UNL1       -0.2689
     16 C          62.1240   88.4679    9.8222 C.3     1  UNL1        0.0741
     17 C          62.2264   89.8305   10.4412 C.3     1  UNL1        0.0369
     18 C          62.4759   85.8980    9.9684 C.3     1  UNL1        0.0991
     19 C          62.6790   84.6741   10.8114 C.ar    1  UNL1       -0.0061
     20 C          63.3866   83.4802   10.2421 C.ar    1  UNL1       -0.0028
     21 C          63.5897   82.2563   11.0852 C.ar    1  UNL1        0.0042
     22 C          63.0852   82.2262   12.4975 C.ar    1  UNL1        0.0531
     23 C          62.3777   83.4200   13.0668 C.ar    1  UNL1        0.0042
     24 C          62.1746   84.6439   12.2237 C.ar    1  UNL1       -0.0028
     25 C          63.2884   81.0022   13.3406 C.2     1  UNL1        0.2427
     26 N          62.3340   79.8501   13.2321 N.am    1  UNL1       -0.3253
     27 O          64.4458   80.9305   14.2920 O.2     1  UNL1       -0.2704
     28 H          61.5744   79.8972   12.6077 H       1  UNL1        0.1453
     29 H          62.4673   79.0468   13.7854 H       1  UNL1        0.1453
     30 O          67.6103   93.3972   11.7541 O.3     1  UNL1       -0.4369
     31 C          68.3681   92.2124    9.1042 C.3     1  UNL1        0.0342
     32 C          67.5948   93.4966    9.1580 C.ar    1  UNL1        0.0131
     33 C          67.2004   94.1884    7.8868 C.ar    1  UNL1        0.0090
     34 C          66.4271   95.4726    7.9406 C.ar    1  UNL1        0.0680
     35 C          66.0483   96.0650    9.2655 C.ar    1  UNL1        0.0090
     36 C          66.4426   95.3732   10.5367 C.ar    1  UNL1        0.0131
     37 C          66.0638   95.9656   11.8616 C.3     1  UNL1        0.0342
     38 C          67.2159   94.0890   10.4829 C.ar    1  UNL1        0.1392
     39 C          66.0328   96.1643    6.6693 C.1     1  UNL1        0.1004
     40 N          65.6384   96.8560    5.3981 N.1     1  UNL1       -0.1908
@<TRIPOS>BOND
     1    31    32    1
     2    32    33   ar
     3    33    34   ar
     4    34    39    1
     5    39    40    3
     6    34    35   ar
     7    35    36   ar
     8    36    37    1
     9    36    38   ar
    10    38    30    1
    11    30     1    1
    12     1     2   ar
    13     2     3   ar
    14     3    10    1
    15    10    12    1
    16    12    13    1
    17    13    14    1
    18    14    15    1
    19    15    18    1
    20    18    19    1
    21    19    20   ar
    22    20    21   ar
    23    21    22   ar
    24    22    25    1
    25    25    26   am
    26    25    27    2
    27    22    23   ar
    28    23    24   ar
    29    15    16    1
    30    16    17    1
    31     3     4   ar
    32     4     5   ar
    33     5     6   ar
    34     6     7    1
    35     7     8    1
    36     8     9    1
    37    38    32   ar
    38     6     1   ar
    39    17    12    1
    40     9     5    1
    41    24    19   ar
    42    10    11    1
    43    26    28    1
    44    26    29    1
@<TRIPOS>MOLECULE
*****
 40 44 0 0 0
SMALL
GASTEIGER

@<TRIPOS>ATOM
      1 C          63.0259   88.2557   12.8606 C.ar    1  UNL1        0.2314
      2 N          62.4182   87.7587   11.5824 N.ar    1  UNL1       -0.1788
      3 C          62.4919   86.3018   11.2337 C.ar    1  UNL1        0.2191
      4 N          63.1733   85.3417   12.1631 N.ar    1  UNL1       -0.2157
      5 C          63.7810   85.8386   13.4413 C.ar    1  UNL1        0.0945
      6 C          63.7073   87.2957   13.7900 C.ar    1  UNL1        0.0770
      7 C          64.3924   87.4916   15.1100 C.3     1  UNL1        0.1750
      8 O          64.8895   86.1557   15.5770 O.3     1  UNL1       -0.3424
      9 C          64.5116   85.1341   14.5458 C.3     1  UNL1        0.1879
     10 N          61.8842   85.8047    9.9555 N.pl3   1  UNL1       -0.3045
     11 H          62.0751   84.8911    9.6423 H       1  UNL1        0.1496
     12 C          60.9857   86.6998    9.1546 C.3     1  UNL1        0.0745
     13 C          60.2497   86.1549    7.9665 C.3     1  UNL1        0.0369
     14 C          59.3512   87.0499    7.1655 C.3     1  UNL1        0.0741
     15 N          59.1886   88.4900    7.5528 N.3     1  UNL1       -0.2689
     16 C          59.9244   89.0349    8.7407 C.3     1  UNL1        0.0741
     17 C          60.8230   88.1398    9.5417 C.3     1  UNL1        0.0369
     18 C          58.2900   89.3851    6.7518 C.3     1  UNL1        0.0991
     19 C          58.8780   90.3460    5.7614 C.ar    1  UNL1       -0.0061
     20 C          57.9866   91.2968    5.0188 C.ar    1  UNL1       -0.0028
     21 C          58.5747   92.2577    4.0284 C.ar    1  UNL1        0.0042
     22 C          60.0540   92.2678    3.7806 C.ar    1  UNL1        0.0531
     23 C          60.9454   91.3170    4.5231 C.ar    1  UNL1        0.0042
     24 C          60.3573   90.3561    5.5136 C.ar    1  UNL1       -0.0028
     25 C          60.6420   93.2287    2.7901 C.2     1  UNL1        0.2427
     26 N          61.8225   92.8209    1.9595 N.am    1  UNL1       -0.3253
     27 O          60.0494   94.5974    2.6304 O.2     1  UNL1       -0.2704
     28 H          62.2114   91.9225    2.0644 H       1  UNL1        0.1453
     29 H          62.2085   93.4515    1.3095 H       1  UNL1        0.1453
     30 O          62.9522   89.7128   13.2092 O.3     1  UNL1       -0.4369
     31 C          65.3721   90.6595   14.7086 C.3     1  UNL1        0.0342
     32 C          65.1076   91.1592   13.3192 C.ar    1  UNL1        0.0131
     33 C          66.0531   92.1322   12.6795 C.ar    1  UNL1        0.0090
     34 C          65.7886   92.6319   11.2901 C.ar    1  UNL1        0.0680
     35 C          64.5787   92.1585   10.5404 C.ar    1  UNL1        0.0090
     36 C          63.6332   91.1855   11.1802 C.ar    1  UNL1        0.0131
     37 C          62.4233   90.7122   10.4305 C.3     1  UNL1        0.0342
     38 C          63.8977   90.6858   12.5696 C.ar    1  UNL1        0.1392
     39 C          66.7342   93.6049   10.6504 C.1     1  UNL1        0.1004
     40 N          67.6798   94.5780   10.0109 N.1     1  UNL1       -0.1908
@<TRIPOS>BOND
     1    31    32    1
     2    32    33   ar
     3    33    34   ar
     4    34    39    1
     5    39    40    3
     6    34    35   ar
     7    35    36   ar
     8    36    37    1
     9    36    38   ar
    10    38    30    1
    11    30     1    1
    12     1     2   ar
    13     2     3   ar
    14     3    10    1
    15    10    12    1
    16    12    13    1
    17    13    14    1
    18    14    15    1
    19    15    18    1
    20    18    19    1
    21    19    20   ar
    22    20    21   ar
    23    21    22   ar
    24    22    25    1
    25    25    26   am
    26    25    27    2
    27    22    23   ar
    28    23    24   ar
    29    15    16    1
    30    16    17    1
    31     3     4   ar
    32     4     5   ar
    33     5     6   ar
    34     6     7    1
    35     7     8    1
    36     8     9    1
    37    38    32   ar
    38     6     1   ar
    39    17    12    1
    40     9     5    1
    41    24    19   ar
    42    10    11    1
    43    26    28    1
    44    26    29    1
@<TRIPOS>MOLECULE
*****
 40 44 0 0 0
SMALL
GASTEIGER

@<TRIPOS>ATOM
      1 C          60.0373   93.3127   -0.3796 C.ar    1  UNL1        0.2314
      2 N          59.4482   93.3903    0.9977 N.ar    1  UNL1       -0.1788
      3 C          60.3459   93.5373    2.1903 C.ar    1  UNL1        0.2191
      4 N          61.8329   93.6067    2.0057 N.ar    1  UNL1       -0.2157
      5 C          62.4221   93.5291    0.6284 C.ar    1  UNL1        0.0945
      6 C          61.5243   93.3821   -0.5642 C.ar    1  UNL1        0.0770
      7 C          62.3868   93.3322   -1.7904 C.3     1  UNL1        0.1750
      8 O          63.8177   93.4484   -1.3556 O.3     1  UNL1       -0.3424
      9 C          63.8395   93.5701    0.1393 C.3     1  UNL1        0.1879
     10 N          59.7568   93.6149    3.5676 N.pl3   1  UNL1       -0.3045
     11 H          59.5165   94.4889    3.9517 H       1  UNL1        0.1496
     12 C          59.5339   92.3607    4.3597 C.3     1  UNL1        0.0745
     13 C          58.1494   91.9884    4.8010 C.3     1  UNL1        0.0369
     14 C          57.9265   90.7342    5.5930 C.3     1  UNL1        0.0741
     15 N          59.0881   89.8523    5.9437 N.3     1  UNL1       -0.2689
     16 C          60.4725   90.2245    5.5025 C.3     1  UNL1        0.0741
     17 C          60.6954   91.4788    4.7104 C.3     1  UNL1        0.0369
     18 C          58.8652   88.5981    6.7358 C.3     1  UNL1        0.0991
     19 C          59.7319   88.2963    7.9223 C.ar    1  UNL1       -0.0061
     20 C          60.2670   89.4163    8.7644 C.ar    1  UNL1       -0.0028
     21 C          61.1337   89.1144    9.9509 C.ar    1  UNL1        0.0042
     22 C          61.4653   87.6927   10.2953 C.ar    1  UNL1        0.0531
     23 C          60.9302   86.5727    9.4531 C.ar    1  UNL1        0.0042
     24 C          60.0635   86.8745    8.2666 C.ar    1  UNL1       -0.0028
     25 C          62.3320   87.3909   11.4818 C.2     1  UNL1        0.2427
     26 N          62.5297   85.9714   11.9244 N.am    1  UNL1       -0.3253
     27 O          63.0010   88.5085   12.2255 O.2     1  UNL1       -0.2704
     28 H          62.0906   85.2379   11.4362 H       1  UNL1        0.1453
     29 H          63.0985   85.7733   12.7031 H       1  UNL1        0.1453
     30 O          59.1395   93.1657   -1.5722 O.3     1  UNL1       -0.4369
     31 C          59.0948   96.1549   -1.3211 C.3     1  UNL1        0.0342
     32 C          57.8121   95.3979   -1.4984 C.ar    1  UNL1        0.0131
     33 C          56.5070   96.1354   -1.5501 C.ar    1  UNL1        0.0090
     34 C          55.2242   95.3784   -1.7273 C.ar    1  UNL1        0.0680
     35 C          55.2465   93.8838   -1.8529 C.ar    1  UNL1        0.0090
     36 C          56.5516   93.1463   -1.8012 C.ar    1  UNL1        0.0131
     37 C          56.5740   91.6517   -1.9267 C.3     1  UNL1        0.0342
     38 C          57.8344   93.9033   -1.6239 C.ar    1  UNL1        0.1392
     39 C          53.9191   96.1161   -1.7791 C.1     1  UNL1        0.1004
     40 N          52.6140   96.8538   -1.8308 N.1     1  UNL1       -0.1908
@<TRIPOS>BOND
     1    31    32    1
     2    32    33   ar
     3    33    34   ar
     4    34    39    1
     5    39    40    3
     6    34    35   ar
     7    35    36   ar
     8    36    37    1
     9    36    38   ar
    10    38    30    1
    11    30     1    1
    12     1     2   ar
    13     2     3   ar
    14     3    10    1
    15    10    12    1
    16    12    13    1
    17    13    14    1
    18    14    15    1
    19    15    18    1
    20    18    19    1
    21    19    20   ar
    22    20    21   ar
    23    21    22   ar
    24    22    25    1
    25    25    26   am
    26    25    27    2
    27    22    23   ar
    28    23    24   ar
    29    15    16    1
    30    16    17    1
    31     3     4   ar
    32     4     5   ar
    33     5     6   ar
    34     6     7    1
    35     7     8    1
    36     8     9    1
    37    38    32   ar
    38     6     1   ar
    39    17    12    1
    40     9     5    1
    41    24    19   ar
    42    10    11    1
    43    26    28    1
    44    26    29    1
@<TRIPOS>MOLECULE
*****
 40 44 0 0 0
SMALL
GASTEIGER

@<TRIPOS>ATOM
      1 C          61.1532   94.3957    0.4916 C.ar    1  UNL1        0.2314
      2 N          59.9582   94.0572    1.3328 N.ar    1  UNL1       -0.1788
      3 C          60.0975   93.1087    2.4864 C.ar    1  UNL1        0.2191
      4 N          61.4317   92.4986    2.7988 N.ar    1  UNL1       -0.2157
      5 C          62.6266   92.8370    1.9576 C.ar    1  UNL1        0.0945
      6 C          62.4874   93.7856    0.8040 C.ar    1  UNL1        0.0770
      7 C          63.8330   93.9296    0.1572 C.3     1  UNL1        0.1750
      8 O          64.8040   93.0700    0.9111 O.3     1  UNL1       -0.3424
      9 C          64.0584   92.3947    2.0238 C.3     1  UNL1        0.1879
     10 N          58.9026   92.7702    3.3276 N.pl3   1  UNL1       -0.3045
     11 H          58.0498   93.2405    3.1834 H       1  UNL1        0.1496
     12 C          59.0070   91.7150    4.3886 C.3     1  UNL1        0.0745
     13 C          60.3505   91.1731    4.7778 C.3     1  UNL1        0.0369
     14 C          60.4549   90.1179    5.8388 C.3     1  UNL1        0.0741
     15 N          59.2158   89.6047    6.5107 N.3     1  UNL1       -0.2689
     16 C          57.8724   90.1465    6.1215 C.3     1  UNL1        0.0741
     17 C          57.7680   91.2018    5.0604 C.3     1  UNL1        0.0369
     18 C          59.3202   88.5495    7.5716 C.3     1  UNL1        0.0991
     19 C          60.2192   88.7609    8.7537 C.ar    1  UNL1       -0.0061
     20 C          61.2048   87.7003    9.1456 C.ar    1  UNL1       -0.0028
     21 C          62.1037   87.9117   10.3277 C.ar    1  UNL1        0.0042
     22 C          62.0170   89.1838   11.1179 C.ar    1  UNL1        0.0531
     23 C          61.0313   90.2444   10.7260 C.ar    1  UNL1        0.0042
     24 C          60.1324   90.0329    9.5439 C.ar    1  UNL1       -0.0028
     25 C          62.9159   89.3951   12.3000 C.2     1  UNL1        0.2427
     26 N          63.1073   90.7736   12.8595 N.am    1  UNL1       -0.3253
     27 O          63.6233   88.2281   12.9224 O.2     1  UNL1       -0.2704
     28 H          62.6429   91.5396   12.4509 H       1  UNL1        0.1453
     29 H          63.6973   90.9124   13.6353 H       1  UNL1        0.1453
     30 O          61.0138   95.3443   -0.6620 O.3     1  UNL1       -0.4369
     31 C          61.6884   93.5122   -2.9399 C.3     1  UNL1        0.0342
     32 C          60.3374   94.1607   -2.8737 C.ar    1  UNL1        0.0131
     33 C          59.3237   93.8932   -3.9465 C.ar    1  UNL1        0.0090
     34 C          57.9728   94.5417   -3.8803 C.ar    1  UNL1        0.0680
     35 C          57.6355   95.4577   -2.7414 C.ar    1  UNL1        0.0090
     36 C          58.6492   95.7252   -1.6686 C.ar    1  UNL1        0.0131
     37 C          58.3120   96.6412   -0.5297 C.3     1  UNL1        0.0342
     38 C          60.0002   95.0767   -1.7348 C.ar    1  UNL1        0.1392
     39 C          56.9591   94.2740   -4.9532 C.1     1  UNL1        0.1004
     40 N          55.9455   94.0065   -6.0261 N.1     1  UNL1       -0.1908
@<TRIPOS>BOND
     1    31    32    1
     2    32    33   ar
     3    33    34   ar
     4    34    39    1
     5    39    40    3
     6    34    35   ar
     7    35    36   ar
     8    36    37    1
     9    36    38   ar
    10    38    30    1
    11    30     1    1
    12     1     2   ar
    13     2     3   ar
    14     3    10    1
    15    10    12    1
    16    12    13    1
    17    13    14    1
    18    14    15    1
    19    15    18    1
    20    18    19    1
    21    19    20   ar
    22    20    21   ar
    23    21    22   ar
    24    22    25    1
    25    25    26   am
    26    25    27    2
    27    22    23   ar
    28    23    24   ar
    29    15    16    1
    30    16    17    1
    31     3     4   ar
    32     4     5   ar
    33     5     6   ar
    34     6     7    1
    35     7     8    1
    36     8     9    1
    37    38    32   ar
    38     6     1   ar
    39    17    12    1
    40     9     5    1
    41    24    19   ar
    42    10    11    1
    43    26    28    1
    44    26    29    1
@<TRIPOS>MOLECULE
*****
 40 44 0 0 0
SMALL
GASTEIGER

@<TRIPOS>ATOM
      1 C          60.9064   89.0118   10.5417 C.ar    1  UNL1        0.2314
      2 N          59.9479   89.2683    9.4166 N.ar    1  UNL1       -0.1788
      3 C          59.7503   88.2335    8.3490 C.ar    1  UNL1        0.2191
      4 N          60.5111   86.9420    8.4063 N.ar    1  UNL1       -0.2157
      5 C          61.4695   86.6854    9.5313 C.ar    1  UNL1        0.0945
      6 C          61.6672   87.7203   10.5990 C.ar    1  UNL1        0.0770
      7 C          62.6722   87.1902   11.5781 C.3     1  UNL1        0.1750
      8 O          63.0958   85.8276   11.1155 O.3     1  UNL1       -0.3424
      9 C          62.3525   85.5156    9.8505 C.3     1  UNL1        0.1879
     10 N          58.7919   88.4900    7.2239 N.pl3   1  UNL1       -0.3045
     11 H          58.0272   87.8865    7.0814 H       1  UNL1        0.1496
     12 C          58.9986   89.6660    6.3161 C.3     1  UNL1        0.0745
     13 C          57.8198   90.4607    5.8377 C.3     1  UNL1        0.0369
     14 C          58.0265   91.6367    4.9298 C.3     1  UNL1        0.0741
     15 N          59.4122   92.0181    4.5003 N.3     1  UNL1       -0.2689
     16 C          60.5910   91.2235    4.9786 C.3     1  UNL1        0.0741
     17 C          60.3843   90.0474    5.8865 C.3     1  UNL1        0.0369
     18 C          59.6190   93.1941    3.5924 C.3     1  UNL1        0.0991
     19 C          60.8347   93.2606    2.7163 C.ar    1  UNL1       -0.0061
     20 C          61.9603   92.2903    2.9203 C.ar    1  UNL1       -0.0028
     21 C          63.1759   92.3569    2.0441 C.ar    1  UNL1        0.0042
     22 C          63.2661   93.3937    0.9639 C.ar    1  UNL1        0.0531
     23 C          62.1405   94.3640    0.7598 C.ar    1  UNL1        0.0042
     24 C          60.9248   94.2974    1.6360 C.ar    1  UNL1       -0.0028
     25 C          64.4818   93.4602    0.0877 C.2     1  UNL1        0.2427
     26 N          65.8114   93.0079    0.6144 N.am    1  UNL1       -0.3253
     27 O          64.3678   93.9790   -1.3151 O.2     1  UNL1       -0.2704
     28 H          65.8862   92.6674    1.5351 H       1  UNL1        0.1453
     29 H          66.6093   93.0515    0.0394 H       1  UNL1        0.1453
     30 O          61.1039   90.0468   11.6093 O.3     1  UNL1       -0.4369
     31 C          62.2165   89.5991   14.3593 C.3     1  UNL1        0.0342
     32 C          63.0423   90.2989   13.3209 C.ar    1  UNL1        0.0131
     33 C          64.4244   90.7749   13.6573 C.ar    1  UNL1        0.0090
     34 C          65.2502   91.4747   12.6189 C.ar    1  UNL1        0.0680
     35 C          64.6939   91.6985   11.2440 C.ar    1  UNL1        0.0090
     36 C          63.3118   91.2225   10.9075 C.ar    1  UNL1        0.0131
     37 C          62.7555   91.4463    9.5326 C.3     1  UNL1        0.0342
     38 C          62.4860   90.5227   11.9459 C.ar    1  UNL1        0.1392
     39 C          66.6323   91.9507   12.9555 C.1     1  UNL1        0.1004
     40 N          68.0143   92.4268   13.2921 N.1     1  UNL1       -0.1908
@<TRIPOS>BOND
     1    31    32    1
     2    32    33   ar
     3    33    34   ar
     4    34    39    1
     5    39    40    3
     6    34    35   ar
     7    35    36   ar
     8    36    37    1
     9    36    38   ar
    10    38    30    1
    11    30     1    1
    12     1     2   ar
    13     2     3   ar
    14     3    10    1
    15    10    12    1
    16    12    13    1
    17    13    14    1
    18    14    15    1
    19    15    18    1
    20    18    19    1
    21    19    20   ar
    22    20    21   ar
    23    21    22   ar
    24    22    25    1
    25    25    26   am
    26    25    27    2
    27    22    23   ar
    28    23    24   ar
    29    15    16    1
    30    16    17    1
    31     3     4   ar
    32     4     5   ar
    33     5     6   ar
    34     6     7    1
    35     7     8    1
    36     8     9    1
    37    38    32   ar
    38     6     1   ar
    39    17    12    1
    40     9     5    1
    41    24    19   ar
    42    10    11    1
    43    26    28    1
    44    26    29    1
@<TRIPOS>MOLECULE
*****
 40 44 0 0 0
SMALL
GASTEIGER

@<TRIPOS>ATOM
      1 C          60.7320   88.9075   10.2788 C.ar    1  UNL1        0.2314
      2 N          59.8048   89.3788    9.1978 N.ar    1  UNL1       -0.1788
      3 C          59.6106   88.5505    7.9625 C.ar    1  UNL1        0.2191
      4 N          60.3435   87.2508    7.8080 N.ar    1  UNL1       -0.2157
      5 C          61.2706   86.7796    8.8889 C.ar    1  UNL1        0.0945
      6 C          61.4648   87.6079   10.1243 C.ar    1  UNL1        0.0770
      7 C          62.4364   86.8915   11.0147 C.3     1  UNL1        0.1750
      8 O          62.8425   85.6204   10.3297 O.3     1  UNL1       -0.3424
      9 C          62.1221   85.5512    9.0159 C.3     1  UNL1        0.1879
     10 N          58.6834   89.0217    6.8815 N.pl3   1  UNL1       -0.3045
     11 H          57.7889   88.6207    6.7908 H       1  UNL1        0.1496
     12 C          59.1193   90.1040    5.9388 C.3     1  UNL1        0.0745
     13 C          58.1041   91.0344    5.3441 C.3     1  UNL1        0.0369
     14 C          58.5399   92.1167    4.4014 C.3     1  UNL1        0.0741
     15 N          59.9911   92.2686    4.0534 N.3     1  UNL1       -0.2689
     16 C          61.0063   91.3382    4.6481 C.3     1  UNL1        0.0741
     17 C          60.5704   90.2559    5.5908 C.3     1  UNL1        0.0369
     18 C          60.4270   93.3508    3.1107 C.3     1  UNL1        0.0991
     19 C          60.0543   93.2765    1.6597 C.ar    1  UNL1       -0.0061
     20 C          60.4180   92.0653    0.8530 C.ar    1  UNL1       -0.0028
     21 C          60.0452   91.9911   -0.5981 C.ar    1  UNL1        0.0042
     22 C          59.3088   93.1279   -1.2425 C.ar    1  UNL1        0.0531
     23 C          58.9451   94.3391   -0.4358 C.ar    1  UNL1        0.0042
     24 C          59.3179   94.4133    1.0153 C.ar    1  UNL1       -0.0028
     25 C          58.9361   93.0536   -2.6935 C.2     1  UNL1        0.2427
     26 N          57.9838   91.9972   -3.1700 N.am    1  UNL1       -0.3253
     27 O          59.5157   94.0356   -3.6680 O.2     1  UNL1       -0.2704
     28 H          57.6034   91.3527   -2.5304 H       1  UNL1        0.1453
     29 H          57.7391   91.9484   -4.1224 H       1  UNL1        0.1453
     30 O          60.9262   89.7360   11.5141 O.3     1  UNL1       -0.4369
     31 C          62.0957   89.4942   14.2662 C.3     1  UNL1        0.0342
     32 C          62.8541   90.2120   13.1894 C.ar    1  UNL1        0.0131
     33 C          64.1973   90.8089   13.4885 C.ar    1  UNL1        0.0090
     34 C          64.9557   91.5267   12.4117 C.ar    1  UNL1        0.0680
     35 C          64.3709   91.6476   11.0357 C.ar    1  UNL1        0.0090
     36 C          63.0277   91.0507   10.7365 C.ar    1  UNL1        0.0131
     37 C          62.4429   91.1715    9.3605 C.3     1  UNL1        0.0342
     38 C          62.2693   90.3329   11.8134 C.ar    1  UNL1        0.1392
     39 C          66.2989   92.1237   12.7110 C.1     1  UNL1        0.1004
     40 N          67.6421   92.7206   13.0101 N.1     1  UNL1       -0.1908
@<TRIPOS>BOND
     1    31    32    1
     2    32    33   ar
     3    33    34   ar
     4    34    39    1
     5    39    40    3
     6    34    35   ar
     7    35    36   ar
     8    36    37    1
     9    36    38   ar
    10    38    30    1
    11    30     1    1
    12     1     2   ar
    13     2     3   ar
    14     3    10    1
    15    10    12    1
    16    12    13    1
    17    13    14    1
    18    14    15    1
    19    15    18    1
    20    18    19    1
    21    19    20   ar
    22    20    21   ar
    23    21    22   ar
    24    22    25    1
    25    25    26   am
    26    25    27    2
    27    22    23   ar
    28    23    24   ar
    29    15    16    1
    30    16    17    1
    31     3     4   ar
    32     4     5   ar
    33     5     6   ar
    34     6     7    1
    35     7     8    1
    36     8     9    1
    37    38    32   ar
    38     6     1   ar
    39    17    12    1
    40     9     5    1
    41    24    19   ar
    42    10    11    1
    43    26    28    1
    44    26    29    1
@<TRIPOS>MOLECULE
*****
 40 44 0 0 0
SMALL
GASTEIGER

@<TRIPOS>ATOM
      1 C          62.3395   90.3291   11.8780 C.ar    1  UNL1        0.2314
      2 N          62.4915   89.7064   13.2342 N.ar    1  UNL1       -0.1788
      3 C          63.6973   90.0160   14.0708 C.ar    1  UNL1        0.2191
      4 N          64.7513   90.9483   13.5513 N.ar    1  UNL1       -0.2157
      5 C          64.5994   91.5710   12.1952 C.ar    1  UNL1        0.0945
      6 C          63.3935   91.2614   11.3585 C.ar    1  UNL1        0.0770
      7 C          63.5161   92.0196   10.0701 C.3     1  UNL1        0.1750
      8 O          64.7978   92.7978   10.1104 O.3     1  UNL1       -0.3424
      9 C          65.4673   92.5205   11.4238 C.3     1  UNL1        0.1879
     10 N          63.8493   89.3933   15.4270 N.pl3   1  UNL1       -0.3045
     11 H          64.0419   89.9587   16.2095 H       1  UNL1        0.1496
     12 C          63.7078   87.9090   15.5908 C.3     1  UNL1        0.0745
     13 C          64.3266   86.9812   14.5875 C.3     1  UNL1        0.0369
     14 C          64.1851   85.4969   14.7513 C.3     1  UNL1        0.0741
     15 N          63.4247   84.9403   15.9185 N.3     1  UNL1       -0.2689
     16 C          62.8060   85.8679   16.9217 C.3     1  UNL1        0.0741
     17 C          62.9475   87.3523   16.7579 C.3     1  UNL1        0.0369
     18 C          63.2832   83.4560   16.0822 C.3     1  UNL1        0.0991
     19 C          63.1753   82.5750   14.8731 C.ar    1  UNL1       -0.0061
     20 C          64.3440   82.4297   13.9442 C.ar    1  UNL1       -0.0028
     21 C          64.2360   81.5486   12.7350 C.ar    1  UNL1        0.0042
     22 C          62.9593   80.8128   12.4548 C.ar    1  UNL1        0.0531
     23 C          61.7905   80.9580   13.3837 C.ar    1  UNL1        0.0042
     24 C          61.8986   81.8392   14.5928 C.ar    1  UNL1       -0.0028
     25 C          62.8513   79.9317   11.2456 C.2     1  UNL1        0.2427
     26 N          63.0703   80.5060    9.8773 N.am    1  UNL1       -0.3253
     27 O          62.5244   78.4765   11.4048 O.2     1  UNL1       -0.2704
     28 H          63.2849   81.4611    9.7729 H       1  UNL1        0.1453
     29 H          62.9994   79.9277    9.0837 H       1  UNL1        0.1453
     30 O          61.1335   90.0195   11.0414 O.3     1  UNL1       -0.4369
     31 C          62.7592   87.5820   11.6864 C.3     1  UNL1        0.0342
     32 C          61.9718   87.6425   10.4112 C.ar    1  UNL1        0.0131
     33 C          61.9971   86.4842    9.4584 C.ar    1  UNL1        0.0090
     34 C          61.2097   86.5447    8.1832 C.ar    1  UNL1        0.0680
     35 C          60.3968   87.7635    7.8607 C.ar    1  UNL1        0.0090
     36 C          60.3715   88.9217    8.8135 C.ar    1  UNL1        0.0131
     37 C          59.5587   90.1404    8.4910 C.3     1  UNL1        0.0342
     38 C          61.1589   88.8612   10.0887 C.ar    1  UNL1        0.1392
     39 C          61.2351   85.3864    7.2304 C.1     1  UNL1        0.1004
     40 N          61.2607   84.2281    6.2776 N.1     1  UNL1       -0.1908
@<TRIPOS>BOND
     1    31    32    1
     2    32    33   ar
     3    33    34   ar
     4    34    39    1
     5    39    40    3
     6    34    35   ar
     7    35    36   ar
     8    36    37    1
     9    36    38   ar
    10    38    30    1
    11    30     1    1
    12     1     2   ar
    13     2     3   ar
    14     3    10    1
    15    10    12    1
    16    12    13    1
    17    13    14    1
    18    14    15    1
    19    15    18    1
    20    18    19    1
    21    19    20   ar
    22    20    21   ar
    23    21    22   ar
    24    22    25    1
    25    25    26   am
    26    25    27    2
    27    22    23   ar
    28    23    24   ar
    29    15    16    1
    30    16    17    1
    31     3     4   ar
    32     4     5   ar
    33     5     6   ar
    34     6     7    1
    35     7     8    1
    36     8     9    1
    37    38    32   ar
    38     6     1   ar
    39    17    12    1
    40     9     5    1
    41    24    19   ar
    42    10    11    1
    43    26    28    1
    44    26    29    1
@<TRIPOS>MOLECULE
*****
 40 44 0 0 0
SMALL
GASTEIGER

@<TRIPOS>ATOM
      1 C          61.4053   94.5065    0.7391 C.ar    1  UNL1        0.2314
      2 N          60.1687   94.1672    1.5175 N.ar    1  UNL1       -0.1788
      3 C          60.2173   93.1084    2.5787 C.ar    1  UNL1        0.2191
      4 N          61.5025   92.3886    2.8617 N.ar    1  UNL1       -0.2157
      5 C          62.7391   92.7277    2.0835 C.ar    1  UNL1        0.0945
      6 C          62.6905   93.7867    1.0222 C.ar    1  UNL1        0.0770
      7 C          64.0602   93.9049    0.4223 C.3     1  UNL1        0.1750
      8 O          64.9554   92.9191    1.1128 O.3     1  UNL1       -0.3424
      9 C          64.1389   92.1915    2.1395 C.3     1  UNL1        0.1879
     10 N          58.9806   92.7691    3.3570 N.pl3   1  UNL1       -0.3045
     11 H          58.1361   93.2388    3.1687 H       1  UNL1        0.1496
     12 C          59.0307   91.7143    4.4222 C.3     1  UNL1        0.0745
     13 C          60.3449   91.1072    4.8154 C.3     1  UNL1        0.0369
     14 C          60.3950   90.0523    5.8807 C.3     1  UNL1        0.0741
     15 N          59.1309   89.6045    6.5527 N.3     1  UNL1       -0.2689
     16 C          57.8168   90.2115    6.1596 C.3     1  UNL1        0.0741
     17 C          57.7667   91.2664    5.0943 C.3     1  UNL1        0.0369
     18 C          59.1810   88.5496    7.6179 C.3     1  UNL1        0.0991
     19 C          60.1591   88.6714    8.7487 C.ar    1  UNL1       -0.0061
     20 C          61.2324   87.6388    8.9265 C.ar    1  UNL1       -0.0028
     21 C          62.2104   87.7607   10.0573 C.ar    1  UNL1        0.0042
     22 C          62.1151   88.9152   11.0102 C.ar    1  UNL1        0.0531
     23 C          61.0418   89.9478   10.8324 C.ar    1  UNL1        0.0042
     24 C          60.0638   89.8259    9.7016 C.ar    1  UNL1       -0.0028
     25 C          63.0932   89.0370   12.1410 C.2     1  UNL1        0.2427
     26 N          63.7442   90.3569   12.4304 N.am    1  UNL1       -0.3253
     27 O          63.4202   87.8389   12.9822 O.2     1  UNL1       -0.2704
     28 H          63.5296   91.1433   11.8783 H       1  UNL1        0.1453
     29 H          64.3862   90.4369   13.1726 H       1  UNL1        0.1453
     30 O          61.3567   95.5654   -0.3221 O.3     1  UNL1       -0.4369
     31 C          63.7469   96.7949   -1.6547 C.3     1  UNL1        0.0342
     32 C          62.8792   95.8325   -2.4103 C.ar    1  UNL1        0.0131
     33 C          63.2066   95.4849   -3.8322 C.ar    1  UNL1        0.0090
     34 C          62.3389   94.5225   -4.5879 C.ar    1  UNL1        0.0680
     35 C          61.1439   93.9078   -3.9216 C.ar    1  UNL1        0.0090
     36 C          60.8165   94.2555   -2.4997 C.ar    1  UNL1        0.0131
     37 C          59.6214   93.6407   -1.8334 C.3     1  UNL1        0.0342
     38 C          61.6841   95.2178   -1.7440 C.ar    1  UNL1        0.1392
     39 C          62.6665   94.1749   -6.0099 C.1     1  UNL1        0.1004
     40 N          62.9939   93.8272   -7.4318 N.1     1  UNL1       -0.1908
@<TRIPOS>BOND
     1    31    32    1
     2    32    33   ar
     3    33    34   ar
     4    34    39    1
     5    39    40    3
     6    34    35   ar
     7    35    36   ar
     8    36    37    1
     9    36    38   ar
    10    38    30    1
    11    30     1    1
    12     1     2   ar
    13     2     3   ar
    14     3    10    1
    15    10    12    1
    16    12    13    1
    17    13    14    1
    18    14    15    1
    19    15    18    1
    20    18    19    1
    21    19    20   ar
    22    20    21   ar
    23    21    22   ar
    24    22    25    1
    25    25    26   am
    26    25    27    2
    27    22    23   ar
    28    23    24   ar
    29    15    16    1
    30    16    17    1
    31     3     4   ar
    32     4     5   ar
    33     5     6   ar
    34     6     7    1
    35     7     8    1
    36     8     9    1
    37    38    32   ar
    38     6     1   ar
    39    17    12    1
    40     9     5    1
    41    24    19   ar
    42    10    11    1
    43    26    28    1
    44    26    29    1
